<?xml version="1.0" encoding="UTF-8"?>

<!-- generated on 2022-10-11 08:57:13.101860 by osmWebWizard.py v1_14_1+0000-f654d7b963e
<configuration>
    <allow-fringe.min-length value="1000.0"/>
    <end value="3600"/>
    <fringe-factor value="5.0"/>
    <fringe-start-attributes value="departSpeed=&quot;max&quot;"/>
    <lanes value="True"/>
    <min-distance value="300.0"/>
    <net-file value="C:\Users\yuyi\deeprl_network\2022-10-11-08-57-04\osm.net.xml"/>
    <period value="1.4211100593844"/>
    <route-file value="C:\Users\yuyi\deeprl_network\2022-10-11-08-57-04\osm.passenger.rou.xml"/>
    <trip-attributes value="departLane=&quot;best&quot;"/>
    <output-trip-file value="C:\Users\yuyi\deeprl_network\2022-10-11-08-57-04\osm.passenger.trips.xml"/>
    <prefix value="veh"/>
    <validate value="True"/>
    <vehicle-class value="passenger"/>
</configuration>
-->

<!-- generated on 2022-10-11 08:57:12 by Eclipse SUMO duarouter Version 1.14.1
<configuration xmlns:xsi="http://www.w3.org/2001/XMLSchema-instance" xsi:noNamespaceSchemaLocation="http://sumo.dlr.de/xsd/duarouterConfiguration.xsd">

    <input>
        <net-file value="C:\Users\yuyi\deeprl_network\2022-10-11-08-57-04\osm.net.xml"/>
        <route-files value="C:\Users\yuyi\deeprl_network\2022-10-11-08-57-04\osm.passenger.trips.xml"/>
    </input>

    <output>
        <output-file value="C:\Users\yuyi\deeprl_network\2022-10-11-08-57-04\osm.passenger.trips.xml.tmp"/>
        <alternatives-output value="NUL"/>
        <write-trips value="true"/>
    </output>

    <time>
        <begin value="0"/>
        <end value="3600"/>
    </time>

    <report>
        <no-warnings value="true"/>
        <ignore-errors value="true"/>
        <no-step-log value="true"/>
    </report>

</configuration>
-->

<routes xmlns:xsi="http://www.w3.org/2001/XMLSchema-instance" xsi:noNamespaceSchemaLocation="http://sumo.dlr.de/xsd/routes_file.xsd">
    <vType id="veh_passenger" vClass="passenger"/>
    <trip id="veh1" type="veh_passenger" depart="1.42" departLane="best" from="1089380528#4" to="1089380528#4"/>
    <trip id="veh2" type="veh_passenger" depart="2.84" departLane="best" from="582781436#5-AddedOnRampEdge" to="531431467#6"/>
    <trip id="veh3" type="veh_passenger" depart="4.26" departLane="best" departSpeed="max" from="830638029" to="830638029"/>
    <trip id="veh4" type="veh_passenger" depart="5.68" departLane="best" from="-113467509#0" to="-113467509#0"/>
    <trip id="veh5" type="veh_passenger" depart="7.11" departLane="best" from="1015040648" to="1015040648"/>
    <trip id="veh8" type="veh_passenger" depart="11.37" departLane="best" from="1015040650#3" to="399037011#2"/>
    <trip id="veh10" type="veh_passenger" depart="14.21" departLane="best" from="590053399#0" to="590053399#0"/>
    <trip id="veh11" type="veh_passenger" depart="15.63" departLane="best" from="284588837#1" to="-590053399#4"/>
    <trip id="veh12" type="veh_passenger" depart="17.05" departLane="best" from="154328424#0" to="154328424#0"/>
    <trip id="veh13" type="veh_passenger" depart="18.47" departLane="best" from="-519323435#4" to="-519322383#1"/>
    <trip id="veh14" type="veh_passenger" depart="19.90" departLane="best" from="641843738#1" to="505097816#3"/>
    <trip id="veh15" type="veh_passenger" depart="21.32" departLane="best" from="590053399#3" to="582781436#1"/>
    <trip id="veh16" type="veh_passenger" depart="22.74" departLane="best" from="399037008#1-AddedOnRampEdge" to="399037008#1-AddedOnRampEdge"/>
    <trip id="veh17" type="veh_passenger" depart="24.16" departLane="best" from="289494710#5" to="289494710#5"/>
    <trip id="veh18" type="veh_passenger" depart="25.58" departLane="best" from="519322349#2" to="519322349#2"/>
    <trip id="veh19" type="veh_passenger" depart="27.00" departLane="best" from="786182933#1" to="399037011#1-AddedOnRampEdge"/>
    <trip id="veh20" type="veh_passenger" depart="28.42" departLane="best" from="-250490019#2" to="-250490019#2"/>
    <trip id="veh23" type="veh_passenger" depart="32.69" departLane="best" from="-519323442#0" to="-519323442#0"/>
    <trip id="veh24" type="veh_passenger" depart="34.11" departLane="best" from="154646651#8" to="154646651#8"/>
    <trip id="veh25" type="veh_passenger" depart="35.53" departLane="best" from="285190622#0" to="-836379244#0"/>
    <trip id="veh26" type="veh_passenger" depart="36.95" departLane="best" from="1089043911#3" to="1089043911#3"/>
    <trip id="veh27" type="veh_passenger" depart="38.37" departLane="best" from="505097816#7" to="505097816#7"/>
    <trip id="veh28" type="veh_passenger" depart="39.79" departLane="best" from="582781436#1" to="582781436#1"/>
    <trip id="veh29" type="veh_passenger" depart="41.21" departLane="best" from="-832137052" to="250490019#3"/>
    <trip id="veh30" type="veh_passenger" depart="42.63" departLane="best" from="965584938#2" to="965584938#2"/>
    <trip id="veh31" type="veh_passenger" depart="44.05" departLane="best" departSpeed="max" from="531431475#1" to="531431475#1"/>
    <trip id="veh32" type="veh_passenger" depart="45.48" departLane="best" from="641126492#5" to="582793752#2"/>
    <trip id="veh33" type="veh_passenger" depart="46.90" departLane="best" from="-113467539#0" to="-113467539#0"/>
    <trip id="veh35" type="veh_passenger" depart="49.74" departLane="best" departSpeed="max" from="1012707127" to="834564078#2"/>
    <trip id="veh36" type="veh_passenger" depart="51.16" departLane="best" from="786182933#6" to="1089380528#6"/>
    <trip id="veh37" type="veh_passenger" depart="52.58" departLane="best" from="531431467#9" to="284588844#3"/>
    <trip id="veh38" type="veh_passenger" depart="54.00" departLane="best" from="832517451#3" to="832517451#3"/>
    <trip id="veh39" type="veh_passenger" depart="55.42" departLane="best" from="1089043890#1" to="1015040609#3"/>
    <trip id="veh40" type="veh_passenger" depart="56.84" departLane="best" departSpeed="max" from="423409769" to="423409769"/>
    <trip id="veh41" type="veh_passenger" depart="58.27" departLane="best" from="505097816#8" to="830636796"/>
    <trip id="veh42" type="veh_passenger" depart="59.69" departLane="best" from="339138842#1" to="339138842#1"/>
    <trip id="veh43" type="veh_passenger" depart="61.11" departLane="best" from="346585830#0-AddedOffRampEdge" to="346585830#0-AddedOffRampEdge"/>
    <trip id="veh44" type="veh_passenger" depart="62.53" departLane="best" from="-519323434#7" to="-519323434#7"/>
    <trip id="veh45" type="veh_passenger" depart="63.95" departLane="best" from="519322387" to="519322387"/>
    <trip id="veh46" type="veh_passenger" depart="65.37" departLane="best" departSpeed="max" from="590053394#0" to="590053394#0"/>
    <trip id="veh47" type="veh_passenger" depart="66.79" departLane="best" from="-353612855#1" to="284588837#1"/>
    <trip id="veh48" type="veh_passenger" depart="68.21" departLane="best" from="353612862#6" to="353612862#6"/>
    <trip id="veh49" type="veh_passenger" depart="69.63" departLane="best" from="86096919#2" to="86096919#2"/>
    <trip id="veh50" type="veh_passenger" depart="71.06" departLane="best" from="-1012639046#1" to="-1012639046#1"/>
    <trip id="veh52" type="veh_passenger" depart="73.90" departLane="best" from="1089043911#3" to="519323434#0"/>
    <trip id="veh55" type="veh_passenger" depart="78.16" departLane="best" from="786182933#6" to="786182933#6"/>
    <trip id="veh56" type="veh_passenger" depart="79.58" departLane="best" from="-641843738#0" to="-641843738#0"/>
    <trip id="veh57" type="veh_passenger" depart="81.00" departLane="best" from="832517451#2" to="786182933#2"/>
    <trip id="veh58" type="veh_passenger" depart="82.42" departLane="best" departSpeed="max" from="154261209#0" to="519322391#8"/>
    <trip id="veh59" type="veh_passenger" depart="83.85" departLane="best" departSpeed="max" from="519322391#0" to="-590053399#0"/>
    <trip id="veh60" type="veh_passenger" depart="85.27" departLane="best" from="582793746#3" to="353612863#1"/>
    <trip id="veh61" type="veh_passenger" depart="86.69" departLane="best" from="582793763#1" to="582793763#1"/>
    <trip id="veh62" type="veh_passenger" depart="88.11" departLane="best" from="-1009909875#0" to="113467440#6"/>
    <trip id="veh63" type="veh_passenger" depart="89.53" departLane="best" departSpeed="max" from="833493245#2" to="833493245#2"/>
    <trip id="veh64" type="veh_passenger" depart="90.95" departLane="best" from="786182933#8" to="834564078#4"/>
    <trip id="veh65" type="veh_passenger" depart="92.37" departLane="best" from="-519322391#8" to="-519322391#8"/>
    <trip id="veh66" type="veh_passenger" depart="93.79" departLane="best" from="582793726#7" to="582793726#7"/>
    <trip id="veh67" type="veh_passenger" depart="95.21" departLane="best" from="582793749#1" to="582793749#1"/>
    <trip id="veh69" type="veh_passenger" depart="98.06" departLane="best" from="1089043911#0" to="786182933#3"/>
    <trip id="veh70" type="veh_passenger" depart="99.48" departLane="best" from="-836379244#0" to="-836379244#0"/>
    <trip id="veh71" type="veh_passenger" depart="100.90" departLane="best" departSpeed="max" from="399037009#0" to="582781436#1"/>
    <trip id="veh73" type="veh_passenger" depart="103.74" departLane="best" from="519323438#2" to="519323438#2"/>
    <trip id="veh74" type="veh_passenger" depart="105.16" departLane="best" from="353612855#1" to="353612855#1"/>
    <trip id="veh75" type="veh_passenger" depart="106.58" departLane="best" departSpeed="max" from="-580853935#1" to="-965584936#0"/>
    <trip id="veh76" type="veh_passenger" depart="108.00" departLane="best" from="399037011#2" to="399037011#2"/>
    <trip id="veh78" type="veh_passenger" depart="110.85" departLane="best" departSpeed="max" from="-388982898" to="519322389#4"/>
    <trip id="veh79" type="veh_passenger" depart="112.27" departLane="best" from="832117945#2" to="832117945#2"/>
    <trip id="veh80" type="veh_passenger" depart="113.69" departLane="best" departSpeed="max" from="-339138842#1" to="-339138842#1"/>
    <trip id="veh81" type="veh_passenger" depart="115.11" departLane="best" departSpeed="max" from="531431467#11" to="531431467#11"/>
    <trip id="veh82" type="veh_passenger" depart="116.53" departLane="best" from="1015040609#2" to="1015040609#2"/>
    <trip id="veh84" type="veh_passenger" depart="119.37" departLane="best" from="590053399#4" to="-832118418#1"/>
    <trip id="veh85" type="veh_passenger" depart="120.79" departLane="best" from="-519323438#1" to="335028963#3"/>
    <trip id="veh87" type="veh_passenger" depart="123.64" departLane="best" from="582781436#1" to="582781436#1"/>
    <trip id="veh88" type="veh_passenger" depart="125.06" departLane="best" from="-519322391#0" to="-519322391#0"/>
    <trip id="veh90" type="veh_passenger" depart="127.90" departLane="best" from="786182933#1" to="786182933#1"/>
    <trip id="veh91" type="veh_passenger" depart="129.32" departLane="best" from="-965584936#0" to="-965584936#0"/>
    <trip id="veh93" type="veh_passenger" depart="132.16" departLane="best" from="833493241#1" to="833493241#1"/>
    <trip id="veh97" type="veh_passenger" depart="137.85" departLane="best" from="86096919#1" to="833493243#4"/>
    <trip id="veh98" type="veh_passenger" depart="139.27" departLane="best" from="641843738#3" to="641843738#3"/>
    <trip id="veh99" type="veh_passenger" depart="140.69" departLane="best" from="353612862#4" to="-836379244#3"/>
    <trip id="veh100" type="veh_passenger" depart="142.11" departLane="best" from="339138842#5" to="-285190624"/>
    <trip id="veh101" type="veh_passenger" depart="143.53" departLane="best" from="289494710#5" to="289494710#5"/>
    <trip id="veh102" type="veh_passenger" depart="144.95" departLane="best" from="1089043911#0" to="582793760#2"/>
    <trip id="veh105" type="veh_passenger" depart="149.22" departLane="best" departSpeed="max" from="580853946#5" to="580853946#5"/>
    <trip id="veh106" type="veh_passenger" depart="150.64" departLane="best" from="-641843738#4" to="1069574888#2"/>
    <trip id="veh107" type="veh_passenger" depart="152.06" departLane="best" from="86096919#1" to="399037011#2"/>
    <trip id="veh108" type="veh_passenger" depart="153.48" departLane="best" departSpeed="max" from="399037009#0" to="399037009#0"/>
    <trip id="veh109" type="veh_passenger" depart="154.90" departLane="best" from="-339138842#1" to="399037011#2"/>
    <trip id="veh110" type="veh_passenger" depart="156.32" departLane="best" from="641126492#3" to="641126492#3"/>
    <trip id="veh111" type="veh_passenger" depart="157.74" departLane="best" from="-832117361#0" to="836379244#3"/>
    <trip id="veh112" type="veh_passenger" depart="159.16" departLane="best" from="-519322391#1" to="-832117361#1"/>
    <trip id="veh113" type="veh_passenger" depart="160.59" departLane="best" from="519322359#2" to="519322359#2"/>
    <trip id="veh114" type="veh_passenger" depart="162.01" departLane="best" departSpeed="max" from="-519323440#2" to="-519323440#2"/>
    <trip id="veh115" type="veh_passenger" depart="163.43" departLane="best" departSpeed="max" from="830638029" to="1015040609#3"/>
    <trip id="veh116" type="veh_passenger" depart="164.85" departLane="best" from="519322359#0" to="519322359#0"/>
    <trip id="veh117" type="veh_passenger" depart="166.27" departLane="best" from="399037011#2" to="399037011#2"/>
    <trip id="veh118" type="veh_passenger" depart="167.69" departLane="best" from="834115080#4" to="834115080#4"/>
    <trip id="veh120" type="veh_passenger" depart="170.53" departLane="best" departSpeed="max" from="284588844#3" to="284588844#3"/>
    <trip id="veh121" type="veh_passenger" depart="171.95" departLane="best" from="532529595#1" to="532529595#1"/>
    <trip id="veh123" type="veh_passenger" depart="174.80" departLane="best" departSpeed="max" from="-388982898" to="-388982898"/>
    <trip id="veh124" type="veh_passenger" depart="176.22" departLane="best" departSpeed="max" from="-388982898" to="-836379244#2"/>
    <trip id="veh125" type="veh_passenger" depart="177.64" departLane="best" from="1089043911#0" to="834115080#3"/>
    <trip id="veh126" type="veh_passenger" depart="179.06" departLane="best" from="830620010#0" to="786182933#9"/>
    <trip id="veh127" type="veh_passenger" depart="180.48" departLane="best" from="285190621#1" to="285190621#1"/>
    <trip id="veh128" type="veh_passenger" depart="181.90" departLane="best" from="607435005#0" to="607435005#0"/>
    <trip id="veh129" type="veh_passenger" depart="183.32" departLane="best" departSpeed="max" from="519322391#0" to="965584934"/>
    <trip id="veh130" type="veh_passenger" depart="184.74" departLane="best" from="-1012639044#5" to="-1012639044#5"/>
    <trip id="veh131" type="veh_passenger" depart="186.17" departLane="best" departSpeed="max" from="1069574888#3" to="1069574888#3"/>
    <trip id="veh132" type="veh_passenger" depart="187.59" departLane="best" from="531431478" to="531431478"/>
    <trip id="veh133" type="veh_passenger" depart="189.01" departLane="best" from="-519323436#1" to="-519323436#1"/>
    <trip id="veh134" type="veh_passenger" depart="190.43" departLane="best" from="-519323444" to="-519323444"/>
    <trip id="veh135" type="veh_passenger" depart="191.85" departLane="best" from="1089380528#0" to="505097816#3"/>
    <trip id="veh138" type="veh_passenger" depart="196.11" departLane="best" departSpeed="max" from="641843738#0" to="641843738#0"/>
    <trip id="veh140" type="veh_passenger" depart="198.96" departLane="best" from="-1009909876" to="582793749#1"/>
    <trip id="veh141" type="veh_passenger" depart="200.38" departLane="best" from="519323444" to="519323444"/>
    <trip id="veh143" type="veh_passenger" depart="203.22" departLane="best" from="-1012639045#2" to="-1012639045#2"/>
    <trip id="veh144" type="veh_passenger" depart="204.64" departLane="best" from="830620010#2" to="830620010#2"/>
    <trip id="veh146" type="veh_passenger" depart="207.48" departLane="best" from="607435005#0" to="399037011#2"/>
    <trip id="veh148" type="veh_passenger" depart="210.32" departLane="best" from="830636796" to="830636796"/>
    <trip id="veh150" type="veh_passenger" depart="213.17" departLane="best" from="832117361#3" to="-836379244#0"/>
    <trip id="veh151" type="veh_passenger" depart="214.59" departLane="best" from="-519322391#3" to="-519322391#3"/>
    <trip id="veh153" type="veh_passenger" depart="217.43" departLane="best" from="519322359#3" to="519322359#3"/>
    <trip id="veh154" type="veh_passenger" depart="218.85" departLane="best" from="-641843738#4" to="834115080#2"/>
    <trip id="veh156" type="veh_passenger" depart="221.69" departLane="best" from="590053401#0" to="830620010#0"/>
    <trip id="veh157" type="veh_passenger" depart="223.11" departLane="best" departSpeed="max" from="582781436#5-AddedOnRampEdge" to="582781436#5-AddedOnRampEdge"/>
    <trip id="veh158" type="veh_passenger" depart="224.54" departLane="best" from="231177199#2" to="834115080#2"/>
    <trip id="veh159" type="veh_passenger" depart="225.96" departLane="best" from="590053397#3" to="786182933#11"/>
    <trip id="veh160" type="veh_passenger" depart="227.38" departLane="best" from="590053401#0" to="590053401#0"/>
    <trip id="veh161" type="veh_passenger" depart="228.80" departLane="best" from="582793776#1" to="582793776#1"/>
    <trip id="veh162" type="veh_passenger" depart="230.22" departLane="best" from="786182933#3-AddedOnRampEdge" to="786182933#3-AddedOnRampEdge"/>
    <trip id="veh163" type="veh_passenger" depart="231.64" departLane="best" from="1015040650#4" to="590053396#0"/>
    <trip id="veh164" type="veh_passenger" depart="233.06" departLane="best" from="1089043911#3" to="1089043911#3"/>
    <trip id="veh165" type="veh_passenger" depart="234.48" departLane="best" from="590053394#3" to="1009909875#0"/>
    <trip id="veh166" type="veh_passenger" depart="235.90" departLane="best" departSpeed="max" from="-833493241#1" to="-833493241#1"/>
    <trip id="veh167" type="veh_passenger" depart="237.33" departLane="best" departSpeed="max" from="231177199#0" to="786182933#11"/>
    <trip id="veh168" type="veh_passenger" depart="238.75" departLane="best" from="836682839#2" to="836682839#2"/>
    <trip id="veh169" type="veh_passenger" depart="240.17" departLane="best" from="284654410#1" to="284654410#1"/>
    <trip id="veh171" type="veh_passenger" depart="243.01" departLane="best" from="-519323436#1" to="-519323436#1"/>
    <trip id="veh172" type="veh_passenger" depart="244.43" departLane="best" from="86096919#2" to="-641843738#0"/>
    <trip id="veh173" type="veh_passenger" depart="245.85" departLane="best" departSpeed="max" from="836379244#0" to="836379244#0"/>
    <trip id="veh174" type="veh_passenger" depart="247.27" departLane="best" from="-519323446" to="-519323446"/>
    <trip id="veh175" type="veh_passenger" depart="248.69" departLane="best" from="582781436#1" to="1089380528#5"/>
    <trip id="veh176" type="veh_passenger" depart="250.12" departLane="best" departSpeed="max" from="399037011#1" to="399037011#1"/>
    <trip id="veh178" type="veh_passenger" depart="252.96" departLane="best" from="-1009909875#3" to="833493243#3"/>
    <trip id="veh179" type="veh_passenger" depart="254.38" departLane="best" departSpeed="max" from="399037009#0" to="580853946#5"/>
    <trip id="veh181" type="veh_passenger" depart="257.22" departLane="best" from="284654404" to="-339138842#0"/>
    <trip id="veh182" type="veh_passenger" depart="258.64" departLane="best" departSpeed="max" from="532529595#0" to="113467509#0"/>
    <trip id="veh183" type="veh_passenger" depart="260.06" departLane="best" from="607435003#3" to="607435003#3"/>
    <trip id="veh184" type="veh_passenger" depart="261.48" departLane="best" from="1089043889#0" to="1089043889#0"/>
    <trip id="veh185" type="veh_passenger" depart="262.91" departLane="best" from="289494710#10" to="289494710#10"/>
    <trip id="veh187" type="veh_passenger" depart="265.75" departLane="best" from="531431467#6" to="531431467#6"/>
    <trip id="veh188" type="veh_passenger" depart="267.17" departLane="best" from="832118418#1" to="519322349#0"/>
    <trip id="veh189" type="veh_passenger" depart="268.59" departLane="best" from="154261209#3" to="154261209#3"/>
    <trip id="veh190" type="veh_passenger" depart="270.01" departLane="best" from="-1009909875#0" to="-1009909875#0"/>
    <trip id="veh191" type="veh_passenger" depart="271.43" departLane="best" departSpeed="max" from="399037011#2" to="399037011#2"/>
    <trip id="veh192" type="veh_passenger" depart="272.85" departLane="best" from="531431467#9" to="531431467#9"/>
    <trip id="veh193" type="veh_passenger" depart="274.27" departLane="best" from="-836379244#3" to="-836379244#3"/>
    <trip id="veh194" type="veh_passenger" depart="275.70" departLane="best" from="831143066" to="831143066"/>
    <trip id="veh195" type="veh_passenger" depart="277.12" departLane="best" from="-604013277" to="-604013277"/>
    <trip id="veh196" type="veh_passenger" depart="278.54" departLane="best" from="-519322391#7" to="-519322391#7"/>
    <trip id="veh197" type="veh_passenger" depart="279.96" departLane="best" from="519323442#1" to="154261209#4"/>
    <trip id="veh199" type="veh_passenger" depart="282.80" departLane="best" from="532529595#2" to="-965584936#0"/>
    <trip id="veh200" type="veh_passenger" depart="284.22" departLane="best" from="1012639044#3" to="1012639044#3"/>
    <trip id="veh202" type="veh_passenger" depart="287.06" departLane="best" from="641843738#4" to="641843738#4"/>
    <trip id="veh203" type="veh_passenger" depart="288.49" departLane="best" from="519322389#2" to="519322389#2"/>
    <trip id="veh204" type="veh_passenger" depart="289.91" departLane="best" from="1009909875#3" to="532529595#7"/>
    <trip id="veh205" type="veh_passenger" depart="291.33" departLane="best" from="360560906#1" to="1014319970#2"/>
    <trip id="veh206" type="veh_passenger" depart="292.75" departLane="best" from="-1012639044#2" to="-1012639044#2"/>
    <trip id="veh207" type="veh_passenger" depart="294.17" departLane="best" departSpeed="max" from="582793726#0" to="582793749#0"/>
    <trip id="veh210" type="veh_passenger" depart="298.43" departLane="best" from="-284588839#3" to="-284588839#3"/>
    <trip id="veh211" type="veh_passenger" depart="299.85" departLane="best" from="607435005#0" to="607435005#0"/>
    <trip id="veh212" type="veh_passenger" depart="301.28" departLane="best" departSpeed="max" from="582793771#3" to="582793771#3"/>
    <trip id="veh213" type="veh_passenger" depart="302.70" departLane="best" departSpeed="max" from="532529595#0" to="965584936#1"/>
    <trip id="veh214" type="veh_passenger" depart="304.12" departLane="best" from="519322359#2" to="834564078#4"/>
    <trip id="veh215" type="veh_passenger" depart="305.54" departLane="best" departSpeed="max" from="830638029" to="830638029"/>
    <trip id="veh218" type="veh_passenger" depart="309.80" departLane="best" from="832117361#1" to="832117361#1"/>
    <trip id="veh219" type="veh_passenger" depart="311.22" departLane="best" from="1015040650#5" to="1015040650#5"/>
    <trip id="veh220" type="veh_passenger" depart="312.64" departLane="best" from="519322391#7" to="519322391#7"/>
    <trip id="veh221" type="veh_passenger" depart="314.07" departLane="best" from="582793749#1" to="353612862#1"/>
    <trip id="veh222" type="veh_passenger" depart="315.49" departLane="best" from="519323436#2" to="519323436#2"/>
    <trip id="veh223" type="veh_passenger" depart="316.91" departLane="best" from="-519322379#0" to="-519322379#0"/>
    <trip id="veh224" type="veh_passenger" depart="318.33" departLane="best" from="1089380528#0" to="113467440#4"/>
    <trip id="veh225" type="veh_passenger" depart="319.75" departLane="best" departSpeed="max" from="399037009#0" to="399037009#0"/>
    <trip id="veh226" type="veh_passenger" depart="321.17" departLane="best" from="532529595#6" to="532529595#6"/>
    <trip id="veh227" type="veh_passenger" depart="322.59" departLane="best" from="-289494710#3" to="-289494710#3"/>
    <trip id="veh228" type="veh_passenger" depart="324.01" departLane="best" from="360560906#1" to="360560906#1"/>
    <trip id="veh230" type="veh_passenger" depart="326.86" departLane="best" from="832117945#1" to="832117945#1"/>
    <trip id="veh231" type="veh_passenger" depart="328.28" departLane="best" from="505097816#7" to="532529595#7"/>
    <trip id="veh232" type="veh_passenger" depart="329.70" departLane="best" departSpeed="max" from="582793746#2" to="582793746#2"/>
    <trip id="veh234" type="veh_passenger" depart="332.54" departLane="best" departSpeed="max" from="284588842#0" to="284588842#0"/>
    <trip id="veh237" type="veh_passenger" depart="336.80" departLane="best" from="505097816#2" to="505097816#2"/>
    <trip id="veh238" type="veh_passenger" depart="338.22" departLane="best" from="1015040650#3" to="1015040650#3"/>
    <trip id="veh239" type="veh_passenger" depart="339.65" departLane="best" departSpeed="max" from="-113467509#0" to="-113467509#0"/>
    <trip id="veh240" type="veh_passenger" depart="341.07" departLane="best" from="531431467#9" to="531431467#9"/>
    <trip id="veh243" type="veh_passenger" depart="345.33" departLane="best" from="519323434#5" to="519323434#5"/>
    <trip id="veh244" type="veh_passenger" depart="346.75" departLane="best" from="335028963#1" to="399037005"/>
    <trip id="veh245" type="veh_passenger" depart="348.17" departLane="best" from="519323434#5" to="519323434#5"/>
    <trip id="veh246" type="veh_passenger" depart="349.59" departLane="best" from="-590053399#0" to="-590053399#0"/>
    <trip id="veh247" type="veh_passenger" depart="351.01" departLane="best" from="-289494710#1" to="250490019#3"/>
    <trip id="veh248" type="veh_passenger" depart="352.44" departLane="best" departSpeed="max" from="1012707127" to="113467440#6"/>
    <trip id="veh249" type="veh_passenger" depart="353.86" departLane="best" from="582793746#3" to="250490019#3"/>
    <trip id="veh250" type="veh_passenger" depart="355.28" departLane="best" from="582793726#10" to="590053401#2"/>
    <trip id="veh252" type="veh_passenger" depart="358.12" departLane="best" departSpeed="max" from="353612863#1" to="353612863#1"/>
    <trip id="veh254" type="veh_passenger" depart="360.96" departLane="best" from="582793760#1" to="582793760#1"/>
    <trip id="veh255" type="veh_passenger" depart="362.38" departLane="best" from="531431467#6" to="531431467#6"/>
    <trip id="veh259" type="veh_passenger" depart="368.07" departLane="best" from="580853946#3" to="582793746#3"/>
    <trip id="veh260" type="veh_passenger" depart="369.49" departLane="best" from="-833493243#2" to="505097816#6"/>
    <trip id="veh261" type="veh_passenger" depart="370.91" departLane="best" departSpeed="max" from="582793726#0" to="-519323436#0"/>
    <trip id="veh262" type="veh_passenger" depart="372.33" departLane="best" from="86096919#0" to="86096919#0"/>
    <trip id="veh263" type="veh_passenger" depart="373.75" departLane="best" from="-519323445#0" to="-519323445#0"/>
    <trip id="veh264" type="veh_passenger" depart="375.17" departLane="best" from="531431467#6" to="531431467#6"/>
    <trip id="veh265" type="veh_passenger" depart="376.59" departLane="best" from="284588847#2" to="284588847#2"/>
    <trip id="veh266" type="veh_passenger" depart="378.02" departLane="best" departSpeed="max" from="-353612854#2" to="-353612854#2"/>
    <trip id="veh267" type="veh_passenger" depart="379.44" departLane="best" departSpeed="max" from="580853946#0" to="519322387"/>
    <trip id="veh268" type="veh_passenger" depart="380.86" departLane="best" from="-519323442#1" to="582793752#0"/>
    <trip id="veh269" type="veh_passenger" depart="382.28" departLane="best" from="505097816#1" to="505097816#1"/>
    <trip id="veh270" type="veh_passenger" depart="383.70" departLane="best" departSpeed="max" from="-580853935#1" to="-580853935#1"/>
    <trip id="veh271" type="veh_passenger" depart="385.12" departLane="best" from="582793771#1-AddedOffRampEdge" to="582793771#1-AddedOffRampEdge"/>
    <trip id="veh274" type="veh_passenger" depart="389.38" departLane="best" from="641843738#4" to="590053398#0"/>
    <trip id="veh275" type="veh_passenger" depart="390.81" departLane="best" departSpeed="max" from="836379244#3" to="836379244#3"/>
    <trip id="veh276" type="veh_passenger" depart="392.23" departLane="best" from="590053399#9" to="590053399#9"/>
    <trip id="veh278" type="veh_passenger" depart="395.07" departLane="best" from="582781436#5" to="86096919#1"/>
    <trip id="veh279" type="veh_passenger" depart="396.49" departLane="best" from="1089043911#8" to="582793771#4"/>
    <trip id="veh280" type="veh_passenger" depart="397.91" departLane="best" departSpeed="max" from="399037009#0" to="399037009#0"/>
    <trip id="veh281" type="veh_passenger" depart="399.33" departLane="best" departSpeed="max" from="582781436#2" to="582781436#2"/>
    <trip id="veh282" type="veh_passenger" depart="400.75" departLane="best" from="1089043911#5" to="641126492#1"/>
    <trip id="veh283" type="veh_passenger" depart="402.17" departLane="best" from="607435003#1" to="607435003#1"/>
    <trip id="veh284" type="veh_passenger" depart="403.60" departLane="best" from="830620010#1" to="1014319970#1"/>
    <trip id="veh285" type="veh_passenger" depart="405.02" departLane="best" from="505097816#8" to="505097816#8"/>
    <trip id="veh286" type="veh_passenger" depart="406.44" departLane="best" from="289494710#5" to="-113467509#0"/>
    <trip id="veh287" type="veh_passenger" depart="407.86" departLane="best" from="-641843738#3" to="-641843738#3"/>
    <trip id="veh288" type="veh_passenger" depart="409.28" departLane="best" from="1014319970#1" to="582793771#1-AddedOffRampEdge"/>
    <trip id="veh289" type="veh_passenger" depart="410.70" departLane="best" from="284588837#2" to="786182933#9"/>
    <trip id="veh290" type="veh_passenger" depart="412.12" departLane="best" from="580853946#4" to="580853946#4"/>