<?xml version="1.0" encoding="UTF-8"?>

<!-- generated on 2022-10-22 16:57:07.462079 by randomTrips.py v1_14_0+0002-ebd7f0b131e
<configuration>
    <end value="3600"/>
    <insertion-density value="110.0"/>
    <net-file value="xiaoshan.net.xml"/>
    <output-trip-file value="xiaoshan3.trips.xml"/>
</configuration>
-->

<routes xmlns:xsi="http://www.w3.org/2001/XMLSchema-instance" xsi:noNamespaceSchemaLocation="http://sumo.dlr.de/xsd/routes_file.xsd">
    <trip id="0" depart="0.00" from="532529595#4" to="-289494710#2"/>
    <trip id="1" depart="0.83" from="1069574888#2" to="1009909875#2"/>
    <trip id="2" depart="1.66" from="590053401#0" to="532529595#7"/>
    <trip id="3" depart="2.48" from="830620010#3" to="-519322383#1"/>
    <trip id="4" depart="3.31" from="360560906#1" to="-289494710#3"/>
    <trip id="5" depart="4.14" from="1015040650#2" to="519322359#8"/>
    <trip id="6" depart="4.97" from="-289494710#10" to="-641843738#6"/>
    <trip id="7" depart="5.80" from="532529595#6" to="519323434#3"/>
    <trip id="8" depart="6.62" from="1015040650#2" to="519323436#2"/>
    <trip id="9" depart="7.45" from="786182933#3" to="-1009909875#0"/>
    <trip id="10" depart="8.28" from="786182933#3" to="582793726#11"/>
    <trip id="11" depart="9.11" from="154646651#1" to="-519323436#3"/>
    <trip id="12" depart="9.94" from="832117945#2" to="1089043911#3"/>
    <trip id="13" depart="10.76" from="-519323434#1" to="-519323434#0"/>
    <trip id="14" depart="11.59" from="786182933#9" to="519323439#0"/>
    <trip id="15" depart="12.42" from="786182933#3" to="582793726#7"/>
    <trip id="16" depart="13.25" from="519323434#0" to="832517451#3"/>
    <trip id="17" depart="14.08" from="289494710#3" to="519323434#3"/>
    <trip id="18" depart="14.90" from="786182933#6" to="519323440#0"/>
    <trip id="19" depart="15.73" from="830620010#0" to="519323436#1"/>
    <trip id="20" depart="16.56" from="582793726#6" to="-289494710#5"/>
    <trip id="21" depart="17.39" from="1015040650#3" to="1069574886#3"/>
    <trip id="22" depart="18.22" from="-519323434#0" to="1015040609#1"/>
    <trip id="23" depart="19.05" from="-519323434#3" to="1069574886#1"/>
    <trip id="24" depart="19.87" from="532529595#4" to="154646651#1"/>
    <trip id="25" depart="20.70" from="289494710#2" to="-832117945#1"/>
    <trip id="26" depart="21.53" from="1069574888#0" to="832117945#1"/>
    <trip id="27" depart="22.36" from="532529595#6" to="519323439#0"/>
    <trip id="28" depart="23.19" from="-519323440#0" to="582793726#7"/>
    <trip id="29" depart="24.01" from="-519323439#0" to="154646651#3"/>
    <trip id="30" depart="24.84" from="832517451#3" to="531431467#5"/>
    <trip id="31" depart="25.67" from="519323436#1" to="532529595#7"/>
    <trip id="32" depart="26.50" from="786182933#9" to="607435003#3"/>
    <trip id="33" depart="27.33" from="1015040650#3" to="-289494710#3"/>
    <trip id="34" depart="28.15" from="1089043911#3" to="1015040650#5"/>
    <trip id="35" depart="28.98" from="1009909875#0" to="832117945#2"/>
    <trip id="36" depart="29.81" from="830620010#1" to="1089043911#0"/>
    <trip id="37" depart="30.64" from="532529595#7" to="289494710#10"/>
    <trip id="38" depart="31.47" from="830627880#1" to="519322349#1"/>
    <trip id="39" depart="32.29" from="1069574888#0" to="1015040650#2"/>
    <trip id="40" depart="33.12" from="519323436#1" to="1015040650#4"/>
    <trip id="41" depart="33.95" from="519323436#3" to="830627880#1"/>
    <trip id="42" depart="34.78" from="289494710#7" to="1009909875#2"/>
    <trip id="43" depart="35.61" from="832517451#4" to="519322359#8"/>
    <trip id="44" depart="36.43" from="-519323434#1" to="-289494710#5"/>
    <trip id="45" depart="37.26" from="-519323434#5" to="519323440#2"/>
    <trip id="46" depart="38.09" from="641843738#4" to="289494710#7"/>
    <trip id="47" depart="38.92" from="-289494710#8" to="284588841#2"/>
    <trip id="48" depart="39.75" from="832517451#4" to="519323434#0"/>
    <trip id="49" depart="40.57" from="832517451#1" to="830620010#2"/>
    <trip id="50" depart="41.40" from="-1009909875#2" to="582793726#6"/>
    <trip id="51" depart="42.23" from="582793726#4" to="519323434#1"/>
    <trip id="52" depart="43.06" from="1069574888#0" to="531431467#5"/>
    <trip id="53" depart="43.89" from="-519323434#5" to="289494710#8"/>
    <trip id="54" depart="44.71" from="519322359#3" to="832517451#1"/>
    <trip id="55" depart="45.54" from="830620010#1" to="1015040650#4"/>
    <trip id="56" depart="46.37" from="519322379#1" to="-519323440#0"/>
    <trip id="57" depart="47.20" from="830627880#1" to="830620010#3"/>
    <trip id="58" depart="48.03" from="1089043911#0" to="531431467#5"/>
    <trip id="59" depart="48.85" from="531431467#3" to="-519323436#3"/>
    <trip id="60" depart="49.68" from="590053401#2" to="519323434#1"/>
    <trip id="61" depart="50.51" from="607435003#3" to="519323434#0"/>
    <trip id="62" depart="51.34" from="-1009909875#0" to="1089043911#2"/>
    <trip id="63" depart="52.17" from="-289494710#10" to="831143066"/>
    <trip id="64" depart="53.00" from="830620010#2" to="827278173#1"/>
    <trip id="65" depart="53.82" from="1089043911#2" to="-289494710#8"/>
    <trip id="66" depart="54.65" from="830620010#2" to="832117945#2"/>
    <trip id="67" depart="55.48" from="-519323434#1" to="519322359#5"/>
    <trip id="68" depart="56.31" from="-519322383#1" to="590053401#2"/>
    <trip id="69" depart="57.14" from="607435003#1" to="-519323436#0"/>
    <trip id="70" depart="57.96" from="519322359#5" to="519323434#3"/>
    <trip id="71" depart="58.79" from="1069574888#0" to="830620010#3"/>
    <trip id="72" depart="59.62" from="360560906#1" to="1009909875#0"/>
    <trip id="73" depart="60.45" from="519323434#1" to="582793726#7"/>
    <trip id="74" depart="61.28" from="-832117945#1" to="1069574888#3"/>
    <trip id="75" depart="62.10" from="832517451#4" to="531431467#6"/>
    <trip id="76" depart="62.93" from="519322349#0" to="519322383#1"/>
    <trip id="77" depart="63.76" from="-519323435#1" to="1009909875#2"/>
    <trip id="78" depart="64.59" from="154261209#4" to="519323436#2"/>
    <trip id="79" depart="65.42" from="1015040650#3" to="1009909875#2"/>
    <trip id="80" depart="66.24" from="-519322383#1" to="531431467#3"/>
    <trip id="81" depart="67.07" from="1015040650#3" to="830627880#2"/>
    <trip id="82" depart="67.90" from="830620010#0" to="-519322379#1"/>
    <trip id="83" depart="68.73" from="1015040650#4" to="532529595#6"/>
    <trip id="84" depart="69.56" from="1009909875#0" to="-519323436#0"/>
    <trip id="85" depart="70.38" from="831143066" to="519323435#1"/>
    <trip id="86" depart="71.21" from="519322359#5" to="641843738#6"/>
    <trip id="87" depart="72.04" from="786182933#3" to="-641843738#4"/>
    <trip id="88" depart="72.87" from="-519323434#3" to="289494710#8"/>
    <trip id="89" depart="73.70" from="360560906#1" to="519322349#2"/>
    <trip id="90" depart="74.52" from="582793749#1" to="532529595#6"/>
    <trip id="91" depart="75.35" from="832517451#3" to="-519323434#0"/>
    <trip id="92" depart="76.18" from="289494710#7" to="1089043911#3"/>
    <trip id="93" depart="77.01" from="830620010#0" to="1015040650#3"/>
    <trip id="94" depart="77.84" from="-641843738#6" to="519322349#0"/>
    <trip id="95" depart="78.66" from="360560906#1" to="1069574886#1"/>
    <trip id="96" depart="79.49" from="1015040650#5" to="830627880#3"/>
    <trip id="97" depart="80.32" from="519322349#0" to="830620010#2"/>
    <trip id="98" depart="81.15" from="519323434#3" to="-289494710#7"/>
    <trip id="99" depart="81.98" from="832517451#4" to="827278173#1"/>
    <trip id="100" depart="82.80" from="832517451#1" to="831143066"/>
    <trip id="101" depart="83.63" from="786182933#9" to="-519323439#0"/>
    <trip id="102" depart="84.46" from="519322359#6" to="1009909875#0"/>
    <trip id="103" depart="85.29" from="289494710#7" to="-289494710#8"/>
    <trip id="104" depart="86.12" from="289494710#3" to="832517451#4"/>
    <trip id="105" depart="86.95" from="1069574888#0" to="641843738#6"/>
    <trip id="106" depart="87.77" from="519322359#3" to="289494710#7"/>
    <trip id="107" depart="88.60" from="832117945#2" to="832517451#6"/>
    <trip id="108" depart="89.43" from="519323434#3" to="582793726#6"/>
    <trip id="109" depart="90.26" from="-519323436#3" to="1069574888#2"/>
    <trip id="110" depart="91.09" from="832517451#1" to="519323436#1"/>
    <trip id="111" depart="91.91" from="519323434#1" to="590053401#1"/>
    <trip id="112" depart="92.74" from="-289494710#8" to="519323436#2"/>
    <trip id="113" depart="93.57" from="519322379#1" to="830620010#1"/>
    <trip id="114" depart="94.40" from="-519323436#3" to="832517451#1"/>
    <trip id="115" depart="95.23" from="-519323434#0" to="-641843738#4"/>
    <trip id="116" depart="96.05" from="519323440#0" to="532529595#6"/>
    <trip id="117" depart="96.88" from="1015040650#3" to="-519323434#3"/>
    <trip id="118" depart="97.71" from="830620010#3" to="1015040650#2"/>
    <trip id="119" depart="98.54" from="519323440#0" to="519323440#2"/>
    <trip id="120" depart="99.37" from="360560906#1" to="519323436#2"/>
    <trip id="121" depart="100.19" from="519322383#1" to="832117945#1"/>
    <trip id="122" depart="101.02" from="-832117945#1" to="582793726#6"/>
    <trip id="123" depart="101.85" from="1015040650#4" to="289494710#10"/>
    <trip id="124" depart="102.68" from="582793726#11" to="1069574888#2"/>
    <trip id="125" depart="103.51" from="1089043911#3" to="590053401#1"/>
    <trip id="126" depart="104.33" from="-519322383#1" to="519322349#1"/>
    <trip id="127" depart="105.16" from="832517451#4" to="832517451#6"/>
    <trip id="128" depart="105.99" from="-519322383#1" to="1009909875#0"/>
    <trip id="129" depart="106.82" from="1069574888#0" to="831143066"/>
    <trip id="130" depart="107.65" from="830620010#2" to="830620010#4"/>
    <trip id="131" depart="108.47" from="289494710#2" to="-519323436#3"/>
    <trip id="132" depart="109.30" from="786182933#8" to="582793726#11"/>
    <trip id="133" depart="110.13" from="531431467#3" to="832517451#4"/>
    <trip id="134" depart="110.96" from="532529595#7" to="-1009909875#0"/>
    <trip id="135" depart="111.79" from="786182933#5" to="1069574888#2"/>
    <trip id="136" depart="112.61" from="582793726#10" to="832117945#1"/>
    <trip id="137" depart="113.44" from="-519323436#1" to="-519323434#3"/>
    <trip id="138" depart="114.27" from="-519323434#5" to="519323434#5"/>
    <trip id="139" depart="115.10" from="1069574888#0" to="519323439#0"/>
    <trip id="140" depart="115.93" from="582793726#8" to="-832117945#1"/>
    <trip id="141" depart="116.75" from="532529595#4" to="1015040650#4"/>
    <trip id="142" depart="117.58" from="519322359#6" to="830627880#2"/>
    <trip id="143" depart="118.41" from="786182933#9" to="-519322383#1"/>
    <trip id="144" depart="119.24" from="360560906#1" to="1069574886#1"/>
    <trip id="145" depart="120.07" from="-1009909875#0" to="607435003#1"/>
    <trip id="146" depart="120.90" from="532529595#4" to="1015040650#4"/>
    <trip id="147" depart="121.72" from="590053401#0" to="519323434#3"/>
    <trip id="148" depart="122.55" from="505097816#9" to="-231177199#5"/>
    <trip id="149" depart="123.38" from="-519322383#1" to="830620010#4"/>
    <trip id="150" depart="124.21" from="830627879#1" to="519323434#3"/>
    <trip id="151" depart="125.04" from="786182933#8" to="519323436#2"/>
    <trip id="152" depart="125.86" from="-519323436#2" to="-519323436#0"/>
    <trip id="153" depart="126.69" from="1089043911#2" to="830627880#1"/>
    <trip id="154" depart="127.52" from="641843738#6" to="830620010#2"/>
    <trip id="155" depart="128.35" from="830627879#1" to="1009909875#0"/>
    <trip id="156" depart="129.18" from="1015040650#5" to="-519323434#0"/>
    <trip id="157" depart="130.00" from="607435003#3" to="830620010#4"/>
    <trip id="158" depart="130.83" from="289494710#8" to="519323440#2"/>
    <trip id="159" depart="131.66" from="-519323436#3" to="831143066"/>
    <trip id="160" depart="132.49" from="830620010#0" to="832517451#3"/>
    <trip id="161" depart="133.32" from="786182933#3" to="830620010#4"/>
    <trip id="162" depart="134.14" from="-289494710#10" to="582793726#8"/>
    <trip id="163" depart="134.97" from="154261209#4" to="831143066"/>
    <trip id="164" depart="135.80" from="786182933#3" to="830620010#2"/>
    <trip id="165" depart="136.63" from="786182933#3" to="1015040650#5"/>
    <trip id="166" depart="137.46" from="641843738#4" to="-519323434#1"/>
    <trip id="167" depart="138.28" from="830620010#1" to="830620010#2"/>
    <trip id="168" depart="139.11" from="1015040650#2" to="786182933#8"/>
    <trip id="169" depart="139.94" from="519322359#3" to="1069574888#3"/>
    <trip id="170" depart="140.77" from="641843738#6" to="1009909875#2"/>
    <trip id="171" depart="141.60" from="-289494710#10" to="-641843738#6"/>
    <trip id="172" depart="142.42" from="1089043911#4" to="830620010#2"/>
    <trip id="173" depart="143.25" from="832517451#1" to="1069574886#1"/>
    <trip id="174" depart="144.08" from="532529595#4" to="289494710#10"/>
    <trip id="175" depart="144.91" from="832517451#3" to="519323434#1"/>
    <trip id="176" depart="145.74" from="831143066" to="-519323434#3"/>
    <trip id="177" depart="146.56" from="832517451#1" to="-519323440#0"/>
    <trip id="178" depart="147.39" from="832517451#1" to="1015040650#4"/>
    <trip id="179" depart="148.22" from="-519323434#5" to="289494710#8"/>
    <trip id="180" depart="149.05" from="582793749#1" to="1069574888#3"/>
    <trip id="181" depart="149.88" from="531431467#3" to="519322359#8"/>
    <trip id="182" depart="150.70" from="289494710#3" to="519323436#1"/>
    <trip id="183" depart="151.53" from="1069574886#1" to="582793726#5"/>
    <trip id="184" depart="152.36" from="-1009909875#0" to="831143066"/>
    <trip id="185" depart="153.19" from="519323434#1" to="582793726#6"/>
    <trip id="186" depart="154.02" from="590053401#0" to="532529595#6"/>
    <trip id="187" depart="154.84" from="284588841#2" to="-519322379#1"/>
    <trip id="188" depart="155.67" from="582793726#10" to="1089043911#2"/>
    <trip id="189" depart="156.50" from="1089043911#3" to="830620010#1"/>
    <trip id="190" depart="157.33" from="582793726#8" to="1069574888#2"/>
    <trip id="191" depart="158.16" from="1089043911#2" to="289494710#3"/>
    <trip id="192" depart="158.99" from="289494710#7" to="1069574888#2"/>
    <trip id="193" depart="159.81" from="-519323436#0" to="289494710#7"/>
    <trip id="194" depart="160.64" from="831143066" to="532529595#7"/>
    <trip id="195" depart="161.47" from="830627879#1" to="519323440#0"/>
    <trip id="196" depart="162.30" from="1089043911#0" to="519323434#3"/>
    <trip id="197" depart="163.13" from="-1009909875#0" to="1069574886#3"/>
    <trip id="198" depart="163.95" from="505097816#9" to="519323436#1"/>
    <trip id="199" depart="164.78" from="532529595#7" to="519322349#1"/>
    <trip id="200" depart="165.61" from="519322349#0" to="1009909875#0"/>
    <trip id="201" depart="166.44" from="519322359#5" to="830627880#1"/>
    <trip id="202" depart="167.27" from="641843738#6" to="-519323439#0"/>
    <trip id="203" depart="168.09" from="-519323434#0" to="519322383#1"/>
    <trip id="204" depart="168.92" from="532529595#4" to="1089043911#3"/>
    <trip id="205" depart="169.75" from="786182933#5" to="590053401#1"/>
    <trip id="206" depart="170.58" from="582793726#11" to="1009909875#2"/>
    <trip id="207" depart="171.41" from="-832117945#1" to="-289494710#2"/>
    <trip id="208" depart="172.23" from="1015040650#4" to="519322349#2"/>
    <trip id="209" depart="173.06" from="827278173#1" to="-519322379#1"/>
    <trip id="210" depart="173.89" from="289494710#8" to="531431467#3"/>
    <trip id="211" depart="174.72" from="-641843738#6" to="582793726#11"/>
    <trip id="212" depart="175.55" from="519322359#8" to="1015040650#2"/>
    <trip id="213" depart="176.37" from="532529595#7" to="-1009909875#0"/>
    <trip id="214" depart="177.20" from="590053401#1" to="607435003#1"/>
    <trip id="215" depart="178.03" from="-519323434#5" to="289494710#7"/>
    <trip id="216" depart="178.86" from="-519323440#0" to="832517451#1"/>
    <trip id="217" depart="179.69" from="519322383#0" to="-289494710#7"/>
    <trip id="218" depart="180.51" from="1015040650#5" to="830620010#1"/>
    <trip id="219" depart="181.34" from="519322359#3" to="786182933#6"/>
    <trip id="220" depart="182.17" from="582793726#10" to="832517451#4"/>
    <trip id="221" depart="183.00" from="519323440#0" to="832117945#2"/>
    <trip id="222" depart="183.83" from="830620010#3" to="519323440#0"/>
    <trip id="223" depart="184.65" from="582793726#8" to="519322359#8"/>
    <trip id="224" depart="185.48" from="786182933#8" to="519323434#3"/>
    <trip id="225" depart="186.31" from="830627879#1" to="590053401#1"/>
    <trip id="226" depart="187.14" from="519322359#5" to="1015040650#4"/>
    <trip id="227" depart="187.97" from="1015040650#5" to="531431467#3"/>
    <trip id="228" depart="188.79" from="607435003#1" to="519322383#1"/>
    <trip id="229" depart="189.62" from="531431467#6" to="1015040650#5"/>
    <trip id="230" depart="190.45" from="-519323434#0" to="1069574886#3"/>
    <trip id="231" depart="191.28" from="1069574888#0" to="1089043911#0"/>
    <trip id="232" depart="192.11" from="519323434#1" to="-519323436#1"/>
    <trip id="233" depart="192.94" from="1015040650#3" to="582793726#10"/>
    <trip id="234" depart="193.76" from="582793726#6" to="-289494710#8"/>
    <trip id="235" depart="194.59" from="289494710#8" to="519323434#1"/>
    <trip id="236" depart="195.42" from="360560906#1" to="-832117945#1"/>
    <trip id="237" depart="196.25" from="360560906#1" to="830627880#2"/>
    <trip id="238" depart="197.08" from="519323436#3" to="582793726#11"/>
    <trip id="239" depart="197.90" from="827278173#1" to="607435003#1"/>
    <trip id="240" depart="198.73" from="289494710#3" to="-1009909875#0"/>
    <trip id="241" depart="199.56" from="231177199#5" to="590053401#2"/>
    <trip id="242" depart="200.39" from="827278173#1" to="832517451#1"/>
    <trip id="243" depart="201.22" from="360560906#1" to="590053401#1"/>
    <trip id="244" depart="202.04" from="519323434#1" to="519323439#0"/>
    <trip id="245" depart="202.87" from="1015040650#2" to="1009909875#2"/>
    <trip id="246" depart="203.70" from="519322349#0" to="-289494710#3"/>
    <trip id="247" depart="204.53" from="154261209#4" to="532529595#7"/>
    <trip id="248" depart="205.36" from="289494710#7" to="-519323439#0"/>
    <trip id="249" depart="206.18" from="519322359#4" to="-519323436#0"/>
    <trip id="250" depart="207.01" from="531431467#5" to="-289494710#2"/>
    <trip id="251" depart="207.84" from="289494710#5" to="519323435#1"/>
    <trip id="252" depart="208.67" from="-289494710#10" to="531431467#5"/>
    <trip id="253" depart="209.50" from="-519323436#1" to="519322349#1"/>
    <trip id="254" depart="210.32" from="-289494710#7" to="154646651#3"/>
    <trip id="255" depart="211.15" from="1009909875#0" to="1089043911#2"/>
    <trip id="256" depart="211.98" from="590053401#2" to="154646651#3"/>
    <trip id="257" depart="212.81" from="590053401#1" to="827278173#1"/>
    <trip id="258" depart="213.64" from="1015040650#5" to="-519322383#0"/>
    <trip id="259" depart="214.46" from="-289494710#10" to="519323434#1"/>
    <trip id="260" depart="215.29" from="832517451#4" to="1089043911#4"/>
    <trip id="261" depart="216.12" from="532529595#6" to="641843738#6"/>
    <trip id="262" depart="216.95" from="532529595#7" to="590053401#2"/>
    <trip id="263" depart="217.78" from="832117945#1" to="-641843738#6"/>
    <trip id="264" depart="218.60" from="-289494710#10" to="-519323436#3"/>
    <trip id="265" depart="219.43" from="-519323436#0" to="532529595#6"/>
    <trip id="266" depart="220.26" from="519323436#1" to="1009909875#0"/>
    <trip id="267" depart="221.09" from="582793726#6" to="607435003#1"/>
    <trip id="268" depart="221.92" from="-519323439#0" to="519323439#0"/>
    <trip id="269" depart="222.74" from="590053401#1" to="-519323434#3"/>
    <trip id="270" depart="223.57" from="786182933#5" to="832517451#2"/>
    <trip id="271" depart="224.40" from="-519323434#5" to="-289494710#2"/>
    <trip id="272" depart="225.23" from="1089043911#3" to="532529595#7"/>
    <trip id="273" depart="226.06" from="832117945#2" to="289494710#10"/>
    <trip id="274" depart="226.89" from="582793726#7" to="-519322379#1"/>
    <trip id="275" depart="227.71" from="582793726#5" to="519323440#2"/>
    <trip id="276" depart="228.54" from="-519323434#3" to="607435003#3"/>
    <trip id="277" depart="229.37" from="827278173#1" to="519323439#0"/>
    <trip id="278" depart="230.20" from="-519323435#1" to="832517451#4"/>
    <trip id="279" depart="231.03" from="607435003#3" to="1089043911#4"/>
    <trip id="280" depart="231.85" from="505097816#9" to="154646651#1"/>
    <trip id="281" depart="232.68" from="519322379#1" to="1089043911#3"/>
    <trip id="282" depart="233.51" from="827278173#1" to="786182933#9"/>
    <trip id="283" depart="234.34" from="-519323434#5" to="832517451#1"/>
    <trip id="284" depart="235.17" from="532529595#4" to="827278173#1"/>
    <trip id="285" depart="235.99" from="582793726#6" to="289494710#8"/>
    <trip id="286" depart="236.82" from="582793749#1" to="832517451#2"/>
    <trip id="287" depart="237.65" from="1069574888#0" to="786182933#6"/>
    <trip id="288" depart="238.48" from="519323434#1" to="519322359#4"/>
    <trip id="289" depart="239.31" from="519322349#0" to="582793726#7"/>
    <trip id="290" depart="240.13" from="1069574888#0" to="830620010#1"/>
    <trip id="291" depart="240.96" from="786182933#8" to="-519322383#1"/>
    <trip id="292" depart="241.79" from="830620010#2" to="1015040650#2"/>
    <trip id="293" depart="242.62" from="519322359#4" to="519323440#0"/>
    <trip id="294" depart="243.45" from="289494710#3" to="-289494710#3"/>
    <trip id="295" depart="244.27" from="827278173#1" to="-641843738#4"/>
    <trip id="296" depart="245.10" from="1009909875#0" to="786182933#5"/>
    <trip id="297" depart="245.93" from="154646651#1" to="830620010#4"/>
    <trip id="298" depart="246.76" from="582793726#6" to="1069574886#1"/>
    <trip id="299" depart="247.59" from="-1009909875#2" to="832117945#2"/>
    <trip id="300" depart="248.41" from="-519323434#1" to="582793726#6"/>
    <trip id="301" depart="249.24" from="519322359#6" to="590053401#2"/>
    <trip id="302" depart="250.07" from="582793726#5" to="531431467#5"/>
    <trip id="303" depart="250.90" from="519322359#8" to="786182933#5"/>
    <trip id="304" depart="251.73" from="-519323434#1" to="1009909875#2"/>
    <trip id="305" depart="252.55" from="582793726#5" to="1069574888#3"/>
    <trip id="306" depart="253.38" from="519323436#3" to="519322349#2"/>
    <trip id="307" depart="254.21" from="519323434#0" to="289494710#7"/>
    <trip id="308" depart="255.04" from="590053401#1" to="1089043911#2"/>
    <trip id="309" depart="255.87" from="582793726#6" to="1015040650#5"/>
    <trip id="310" depart="256.69" from="1015040650#5" to="-519323434#3"/>
    <trip id="311" depart="257.52" from="-641843738#6" to="-519323434#3"/>
    <trip id="312" depart="258.35" from="519323434#0" to="607435003#1"/>
    <trip id="313" depart="259.18" from="-519323440#2" to="1009909875#0"/>
    <trip id="314" depart="260.01" from="519322359#6" to="582793726#7"/>
    <trip id="315" depart="260.84" from="832517451#2" to="519323434#0"/>
    <trip id="316" depart="261.66" from="1069574888#2" to="-519323434#0"/>
    <trip id="317" depart="262.49" from="-641843738#6" to="1009909875#2"/>
    <trip id="318" depart="263.32" from="-519323440#2" to="-231177199#5"/>
    <trip id="319" depart="264.15" from="519323434#0" to="1015040650#5"/>
    <trip id="320" depart="264.98" from="832517451#2" to="519323434#5"/>
    <trip id="321" depart="265.80" from="582793726#5" to="-519323436#0"/>
    <trip id="322" depart="266.63" from="830620010#1" to="519322359#5"/>
    <trip id="323" depart="267.46" from="830620010#1" to="519323436#1"/>
    <trip id="324" depart="268.29" from="519322359#4" to="360560906#1"/>
    <trip id="325" depart="269.12" from="-519323440#2" to="-289494710#7"/>
    <trip id="326" depart="269.94" from="831143066" to="519322359#4"/>
    <trip id="327" depart="270.77" from="786182933#6" to="289494710#3"/>
    <trip id="328" depart="271.60" from="-519322383#1" to="531431467#3"/>
    <trip id="329" depart="272.43" from="-289494710#7" to="-519323436#2"/>
    <trip id="330" depart="273.26" from="519323436#1" to="1069574888#2"/>
    <trip id="331" depart="274.08" from="832517451#4" to="-519323434#3"/>
    <trip id="332" depart="274.91" from="607435003#1" to="519323439#0"/>
    <trip id="333" depart="275.74" from="641843738#4" to="1009909875#2"/>
    <trip id="334" depart="276.57" from="519322383#1" to="519322349#0"/>
    <trip id="335" depart="277.40" from="519322349#0" to="830620010#2"/>
    <trip id="336" depart="278.22" from="832517451#3" to="1069574888#3"/>
    <trip id="337" depart="279.05" from="531431467#5" to="519323440#0"/>
    <trip id="338" depart="279.88" from="590053401#0" to="832117945#2"/>
    <trip id="339" depart="280.71" from="1009909875#0" to="1009909875#0"/>
    <trip id="340" depart="281.54" from="582793726#10" to="-519323436#3"/>
    <trip id="341" depart="282.36" from="-519323440#0" to="-519322379#1"/>
    <trip id="342" depart="283.19" from="-1009909875#0" to="519322349#0"/>
    <trip id="343" depart="284.02" from="519323439#0" to="1069574886#3"/>
    <trip id="344" depart="284.85" from="1015040650#3" to="582793726#5"/>
    <trip id="345" depart="285.68" from="582793726#6" to="519322349#0"/>
    <trip id="346" depart="286.50" from="582793726#4" to="831143066"/>
    <trip id="347" depart="287.33" from="641843738#4" to="519323440#2"/>
    <trip id="348" depart="288.16" from="582793726#10" to="832117945#1"/>
    <trip id="349" depart="288.99" from="505097816#9" to="519323434#3"/>
    <trip id="350" depart="289.82" from="532529595#6" to="830627880#2"/>
    <trip id="351" depart="290.64" from="786182933#6" to="-519322379#1"/>
    <trip id="352" depart="291.47" from="-519323439#0" to="1069574888#3"/>
    <trip id="353" depart="292.30" from="590053401#1" to="519323435#1"/>
    <trip id="354" depart="293.13" from="1069574888#3" to="-519323436#0"/>
    <trip id="355" depart="293.96" from="582793726#4" to="582793726#11"/>
    <trip id="356" depart="294.79" from="831143066" to="519322359#6"/>
    <trip id="357" depart="295.61" from="519322359#8" to="-519322383#0"/>
    <trip id="358" depart="296.44" from="-289494710#5" to="289494710#8"/>
    <trip id="359" depart="297.27" from="1089043911#4" to="1015040650#3"/>
    <trip id="360" depart="298.10" from="-519323434#1" to="832517451#2"/>
    <trip id="361" depart="298.93" from="786182933#8" to="519323436#1"/>
    <trip id="362" depart="299.75" from="832117945#1" to="832517451#6"/>
    <trip id="363" depart="300.58" from="582793726#11" to="1015040650#5"/>
    <trip id="364" depart="301.41" from="-289494710#5" to="590053401#2"/>
    <trip id="365" depart="302.24" from="519322359#4" to="531431467#6"/>
    <trip id="366" depart="303.07" from="830627880#2" to="-641843738#4"/>
    <trip id="367" depart="303.89" from="519323439#0" to="531431467#3"/>
    <trip id="368" depart="304.72" from="519322359#8" to="-519322383#1"/>
    <trip id="369" depart="305.55" from="154646651#1" to="1089043911#2"/>
    <trip id="370" depart="306.38" from="582793726#11" to="830620010#2"/>
    <trip id="371" depart="307.21" from="1089043911#4" to="582793726#10"/>
    <trip id="372" depart="308.03" from="1069574888#3" to="832117945#2"/>
    <trip id="373" depart="308.86" from="786182933#5" to="519323434#3"/>
    <trip id="374" depart="309.69" from="519322359#3" to="1089043911#0"/>
    <trip id="375" depart="310.52" from="1089043911#4" to="832517451#2"/>
    <trip id="376" depart="311.35" from="289494710#7" to="519322383#1"/>
    <trip id="377" depart="312.17" from="832517451#3" to="531431467#8"/>
    <trip id="378" depart="313.00" from="519323434#1" to="289494710#5"/>
    <trip id="379" depart="313.83" from="-519323440#2" to="1089043911#5"/>
    <trip id="380" depart="314.66" from="590053401#2" to="519323440#2"/>
    <trip id="381" depart="315.49" from="590053401#2" to="-832117945#1"/>
    <trip id="382" depart="316.31" from="519323434#3" to="831143066"/>
    <trip id="383" depart="317.14" from="519322349#0" to="582793726#11"/>
    <trip id="384" depart="317.97" from="-519323435#1" to="832517451#3"/>
    <trip id="385" depart="318.80" from="531431467#3" to="1015040650#2"/>
    <trip id="386" depart="319.63" from="-519323436#3" to="519323434#3"/>
    <trip id="387" depart="320.45" from="519323434#3" to="-519322383#1"/>
    <trip id="388" depart="321.28" from="832517451#4" to="830627880#2"/>
    <trip id="389" depart="322.11" from="519322359#3" to="-519323434#3"/>
    <trip id="390" depart="322.94" from="786182933#8" to="519322359#6"/>
    <trip id="391" depart="323.77" from="582793726#7" to="519322359#8"/>
    <trip id="392" depart="324.59" from="1069574888#0" to="827278173#1"/>
    <trip id="393" depart="325.42" from="832517451#2" to="1015040650#2"/>
    <trip id="394" depart="326.25" from="519323434#3" to="284588841#2"/>
    <trip id="395" depart="327.08" from="830627880#2" to="519322359#8"/>
    <trip id="396" depart="327.91" from="830620010#2" to="830620010#2"/>
    <trip id="397" depart="328.74" from="1069574888#2" to="641843738#6"/>
    <trip id="398" depart="329.56" from="289494710#8" to="832117945#1"/>
    <trip id="399" depart="330.39" from="519322379#1" to="786182933#9"/>
    <trip id="400" depart="331.22" from="1069574888#2" to="1069574888#2"/>
    <trip id="401" depart="332.05" from="519323439#0" to="832517451#6"/>
    <trip id="402" depart="332.88" from="519322359#6" to="-519323436#2"/>