<?xml version="1.0" encoding="UTF-8"?>

<!-- generated on 2022-10-23 20:35:47.103663 by randomTrips.py v1_14_0+0002-ebd7f0b131e
<configuration>
    <end value="3600"/>
    <insertion-density value="150.0"/>
    <net-file value="xiaoshan.net.xml"/>
    <output-trip-file value="xiaoshan3.trips.xml"/>
</configuration>
-->

<routes xmlns:xsi="http://www.w3.org/2001/XMLSchema-instance" xsi:noNamespaceSchemaLocation="http://sumo.dlr.de/xsd/routes_file.xsd">
    <trip id="0" depart="0.00" from="532529595#4" to="-289494710#2"/>
    <trip id="1" depart="0.61" from="1069574888#2" to="1009909875#2"/>
    <trip id="2" depart="1.21" from="590053401#0" to="532529595#7"/>
    <trip id="3" depart="1.82" from="830620010#3" to="-519322383#1"/>
    <trip id="4" depart="2.43" from="360560906#1" to="-289494710#3"/>
    <trip id="5" depart="3.04" from="1015040650#2" to="519322359#8"/>
    <trip id="6" depart="3.64" from="-289494710#10" to="-641843738#6"/>
    <trip id="7" depart="4.25" from="532529595#6" to="519323434#3"/>
    <trip id="8" depart="4.86" from="1015040650#2" to="519323436#2"/>
    <trip id="9" depart="5.47" from="786182933#3" to="-1009909875#0"/>
    <trip id="10" depart="6.07" from="786182933#3" to="582793726#11"/>
    <trip id="11" depart="6.68" from="154646651#1" to="-519323436#3"/>
    <trip id="12" depart="7.29" from="832117945#2" to="1089043911#3"/>
    <trip id="13" depart="7.89" from="-519323434#1" to="-519323434#0"/>
    <trip id="14" depart="8.50" from="786182933#9" to="519323439#0"/>
    <trip id="15" depart="9.11" from="786182933#3" to="582793726#7"/>
    <trip id="16" depart="9.72" from="519323434#0" to="832517451#3"/>
    <trip id="17" depart="10.32" from="289494710#3" to="519323434#3"/>
    <trip id="18" depart="10.93" from="786182933#6" to="519323440#0"/>
    <trip id="19" depart="11.54" from="830620010#0" to="519323436#1"/>
    <trip id="20" depart="12.14" from="582793726#6" to="-289494710#5"/>
    <trip id="21" depart="12.75" from="1015040650#3" to="1069574886#3"/>
    <trip id="22" depart="13.36" from="-519323434#0" to="1015040609#1"/>
    <trip id="23" depart="13.97" from="-519323434#3" to="1069574886#1"/>
    <trip id="24" depart="14.57" from="532529595#4" to="154646651#1"/>
    <trip id="25" depart="15.18" from="289494710#2" to="-832117945#1"/>
    <trip id="26" depart="15.79" from="1069574888#0" to="832117945#1"/>
    <trip id="27" depart="16.40" from="532529595#6" to="519323439#0"/>
    <trip id="28" depart="17.00" from="-519323440#0" to="582793726#7"/>
    <trip id="29" depart="17.61" from="-519323439#0" to="154646651#3"/>
    <trip id="30" depart="18.22" from="832517451#3" to="531431467#5"/>
    <trip id="31" depart="18.82" from="519323436#1" to="532529595#7"/>
    <trip id="32" depart="19.43" from="786182933#9" to="607435003#3"/>
    <trip id="33" depart="20.04" from="1015040650#3" to="-289494710#3"/>
    <trip id="34" depart="20.65" from="1089043911#3" to="1015040650#5"/>
    <trip id="35" depart="21.25" from="1009909875#0" to="832117945#2"/>
    <trip id="36" depart="21.86" from="830620010#1" to="1089043911#0"/>
    <trip id="37" depart="22.47" from="532529595#7" to="289494710#10"/>
    <trip id="38" depart="23.07" from="830627880#1" to="519322349#1"/>
    <trip id="39" depart="23.68" from="1069574888#0" to="1015040650#2"/>
    <trip id="40" depart="24.29" from="519323436#1" to="1015040650#4"/>
    <trip id="41" depart="24.90" from="519323436#3" to="830627880#1"/>
    <trip id="42" depart="25.50" from="289494710#7" to="1009909875#2"/>
    <trip id="43" depart="26.11" from="832517451#4" to="519322359#8"/>
    <trip id="44" depart="26.72" from="-519323434#1" to="-289494710#5"/>
    <trip id="45" depart="27.33" from="-519323434#5" to="519323440#2"/>
    <trip id="46" depart="27.93" from="641843738#4" to="289494710#7"/>
    <trip id="47" depart="28.54" from="-289494710#8" to="284588841#2"/>
    <trip id="48" depart="29.15" from="832517451#4" to="519323434#0"/>
    <trip id="49" depart="29.75" from="832517451#1" to="830620010#2"/>
    <trip id="50" depart="30.36" from="-1009909875#2" to="582793726#6"/>
    <trip id="51" depart="30.97" from="582793726#4" to="519323434#1"/>
    <trip id="52" depart="31.58" from="1069574888#0" to="531431467#5"/>
    <trip id="53" depart="32.18" from="-519323434#5" to="289494710#8"/>
    <trip id="54" depart="32.79" from="519322359#3" to="832517451#1"/>
    <trip id="55" depart="33.40" from="830620010#1" to="1015040650#4"/>
    <trip id="56" depart="34.01" from="519322379#1" to="-519323440#0"/>
    <trip id="57" depart="34.61" from="830627880#1" to="830620010#3"/>
    <trip id="58" depart="35.22" from="1089043911#0" to="531431467#5"/>
    <trip id="59" depart="35.83" from="531431467#3" to="-519323436#3"/>
    <trip id="60" depart="36.43" from="590053401#2" to="519323434#1"/>
    <trip id="61" depart="37.04" from="607435003#3" to="519323434#0"/>
    <trip id="62" depart="37.65" from="-1009909875#0" to="1089043911#2"/>
    <trip id="63" depart="38.26" from="-289494710#10" to="831143066"/>
    <trip id="64" depart="38.86" from="830620010#2" to="827278173#1"/>
    <trip id="65" depart="39.47" from="1089043911#2" to="-289494710#8"/>
    <trip id="66" depart="40.08" from="830620010#2" to="832117945#2"/>
    <trip id="67" depart="40.68" from="-519323434#1" to="519322359#5"/>
    <trip id="68" depart="41.29" from="-519322383#1" to="590053401#2"/>
    <trip id="69" depart="41.90" from="607435003#1" to="-519323436#0"/>
    <trip id="70" depart="42.51" from="519322359#5" to="519323434#3"/>
    <trip id="71" depart="43.11" from="1069574888#0" to="830620010#3"/>
    <trip id="72" depart="43.72" from="360560906#1" to="1009909875#0"/>
    <trip id="73" depart="44.33" from="519323434#1" to="582793726#7"/>
    <trip id="74" depart="44.94" from="-832117945#1" to="1069574888#3"/>
    <trip id="75" depart="45.54" from="832517451#4" to="531431467#6"/>
    <trip id="76" depart="46.15" from="519322349#0" to="519322383#1"/>
    <trip id="77" depart="46.76" from="-519323435#1" to="1009909875#2"/>
    <trip id="78" depart="47.36" from="154261209#4" to="519323436#2"/>
    <trip id="79" depart="47.97" from="1015040650#3" to="1009909875#2"/>
    <trip id="80" depart="48.58" from="-519322383#1" to="531431467#3"/>
    <trip id="81" depart="49.19" from="1015040650#3" to="830627880#2"/>
    <trip id="82" depart="49.79" from="830620010#0" to="-519322379#1"/>
    <trip id="83" depart="50.40" from="1015040650#4" to="532529595#6"/>
    <trip id="84" depart="51.01" from="1009909875#0" to="-519323436#0"/>
    <trip id="85" depart="51.61" from="831143066" to="519323435#1"/>
    <trip id="86" depart="52.22" from="519322359#5" to="641843738#6"/>
    <trip id="87" depart="52.83" from="786182933#3" to="-641843738#4"/>
    <trip id="88" depart="53.44" from="-519323434#3" to="289494710#8"/>
    <trip id="89" depart="54.04" from="360560906#1" to="519322349#2"/>
    <trip id="90" depart="54.65" from="582793749#1" to="532529595#6"/>
    <trip id="91" depart="55.26" from="832517451#3" to="-519323434#0"/>
    <trip id="92" depart="55.87" from="289494710#7" to="1089043911#3"/>
    <trip id="93" depart="56.47" from="830620010#0" to="1015040650#3"/>
    <trip id="94" depart="57.08" from="-641843738#6" to="519322349#0"/>
    <trip id="95" depart="57.69" from="360560906#1" to="1069574886#1"/>
    <trip id="96" depart="58.29" from="1015040650#5" to="830627880#3"/>
    <trip id="97" depart="58.90" from="519322349#0" to="830620010#2"/>
    <trip id="98" depart="59.51" from="519323434#3" to="-289494710#7"/>
    <trip id="99" depart="60.12" from="832517451#4" to="827278173#1"/>
    <trip id="100" depart="60.72" from="832517451#1" to="831143066"/>
    <trip id="101" depart="61.33" from="786182933#9" to="-519323439#0"/>
    <trip id="102" depart="61.94" from="519322359#6" to="1009909875#0"/>
    <trip id="103" depart="62.55" from="289494710#7" to="-289494710#8"/>
    <trip id="104" depart="63.15" from="289494710#3" to="832517451#4"/>
    <trip id="105" depart="63.76" from="1069574888#0" to="641843738#6"/>
    <trip id="106" depart="64.37" from="519322359#3" to="289494710#7"/>
    <trip id="107" depart="64.97" from="832117945#2" to="832517451#6"/>
    <trip id="108" depart="65.58" from="519323434#3" to="582793726#6"/>
    <trip id="109" depart="66.19" from="-519323436#3" to="1069574888#2"/>
    <trip id="110" depart="66.80" from="832517451#1" to="519323436#1"/>
    <trip id="111" depart="67.40" from="519323434#1" to="590053401#1"/>
    <trip id="112" depart="68.01" from="-289494710#8" to="519323436#2"/>
    <trip id="113" depart="68.62" from="519322379#1" to="830620010#1"/>
    <trip id="114" depart="69.22" from="-519323436#3" to="832517451#1"/>
    <trip id="115" depart="69.83" from="-519323434#0" to="-641843738#4"/>
    <trip id="116" depart="70.44" from="519323440#0" to="532529595#6"/>
    <trip id="117" depart="71.05" from="1015040650#3" to="-519323434#3"/>
    <trip id="118" depart="71.65" from="830620010#3" to="1015040650#2"/>
    <trip id="119" depart="72.26" from="519323440#0" to="519323440#2"/>
    <trip id="120" depart="72.87" from="360560906#1" to="519323436#2"/>
    <trip id="121" depart="73.48" from="519322383#1" to="832117945#1"/>
    <trip id="122" depart="74.08" from="-832117945#1" to="582793726#6"/>
    <trip id="123" depart="74.69" from="1015040650#4" to="289494710#10"/>
    <trip id="124" depart="75.30" from="582793726#11" to="1069574888#2"/>
    <trip id="125" depart="75.90" from="1089043911#3" to="590053401#1"/>
    <trip id="126" depart="76.51" from="-519322383#1" to="519322349#1"/>
    <trip id="127" depart="77.12" from="832517451#4" to="832517451#6"/>
    <trip id="128" depart="77.73" from="-519322383#1" to="1009909875#0"/>
    <trip id="129" depart="78.33" from="1069574888#0" to="831143066"/>
    <trip id="130" depart="78.94" from="830620010#2" to="830620010#4"/>
    <trip id="131" depart="79.55" from="289494710#2" to="-519323436#3"/>
    <trip id="132" depart="80.16" from="786182933#8" to="582793726#11"/>
    <trip id="133" depart="80.76" from="531431467#3" to="832517451#4"/>
    <trip id="134" depart="81.37" from="532529595#7" to="-1009909875#0"/>
    <trip id="135" depart="81.98" from="786182933#5" to="1069574888#2"/>
    <trip id="136" depart="82.58" from="582793726#10" to="832117945#1"/>
    <trip id="137" depart="83.19" from="-519323436#1" to="-519323434#3"/>
    <trip id="138" depart="83.80" from="-519323434#5" to="519323434#5"/>
    <trip id="139" depart="84.41" from="1069574888#0" to="519323439#0"/>
    <trip id="140" depart="85.01" from="582793726#8" to="-832117945#1"/>
    <trip id="141" depart="85.62" from="532529595#4" to="1015040650#4"/>
    <trip id="142" depart="86.23" from="519322359#6" to="830627880#2"/>
    <trip id="143" depart="86.83" from="786182933#9" to="-519322383#1"/>
    <trip id="144" depart="87.44" from="360560906#1" to="1069574886#1"/>
    <trip id="145" depart="88.05" from="-1009909875#0" to="607435003#1"/>
    <trip id="146" depart="88.66" from="532529595#4" to="1015040650#4"/>
    <trip id="147" depart="89.26" from="590053401#0" to="519323434#3"/>
    <trip id="148" depart="89.87" from="505097816#9" to="-231177199#5"/>
    <trip id="149" depart="90.48" from="-519322383#1" to="830620010#4"/>
    <trip id="150" depart="91.09" from="830627879#1" to="519323434#3"/>
    <trip id="151" depart="91.69" from="786182933#8" to="519323436#2"/>
    <trip id="152" depart="92.30" from="-519323436#2" to="-519323436#0"/>
    <trip id="153" depart="92.91" from="1089043911#2" to="830627880#1"/>
    <trip id="154" depart="93.51" from="641843738#6" to="830620010#2"/>
    <trip id="155" depart="94.12" from="830627879#1" to="1009909875#0"/>
    <trip id="156" depart="94.73" from="1015040650#5" to="-519323434#0"/>
    <trip id="157" depart="95.34" from="607435003#3" to="830620010#4"/>
    <trip id="158" depart="95.94" from="289494710#8" to="519323440#2"/>
    <trip id="159" depart="96.55" from="-519323436#3" to="831143066"/>
    <trip id="160" depart="97.16" from="830620010#0" to="832517451#3"/>
    <trip id="161" depart="97.76" from="786182933#3" to="830620010#4"/>
    <trip id="162" depart="98.37" from="-289494710#10" to="582793726#8"/>
    <trip id="163" depart="98.98" from="154261209#4" to="831143066"/>
    <trip id="164" depart="99.59" from="786182933#3" to="830620010#2"/>
    <trip id="165" depart="100.19" from="786182933#3" to="1015040650#5"/>
    <trip id="166" depart="100.80" from="641843738#4" to="-519323434#1"/>
    <trip id="167" depart="101.41" from="830620010#1" to="830620010#2"/>
    <trip id="168" depart="102.02" from="1015040650#2" to="786182933#8"/>
    <trip id="169" depart="102.62" from="519322359#3" to="1069574888#3"/>
    <trip id="170" depart="103.23" from="641843738#6" to="1009909875#2"/>
    <trip id="171" depart="103.84" from="-289494710#10" to="-641843738#6"/>
    <trip id="172" depart="104.44" from="1089043911#4" to="830620010#2"/>
    <trip id="173" depart="105.05" from="832517451#1" to="1069574886#1"/>
    <trip id="174" depart="105.66" from="532529595#4" to="289494710#10"/>
    <trip id="175" depart="106.27" from="832517451#3" to="519323434#1"/>
    <trip id="176" depart="106.87" from="831143066" to="-519323434#3"/>
    <trip id="177" depart="107.48" from="832517451#1" to="-519323440#0"/>
    <trip id="178" depart="108.09" from="832517451#1" to="1015040650#4"/>
    <trip id="179" depart="108.70" from="-519323434#5" to="289494710#8"/>
    <trip id="180" depart="109.30" from="582793749#1" to="1069574888#3"/>
    <trip id="181" depart="109.91" from="531431467#3" to="519322359#8"/>
    <trip id="182" depart="110.52" from="289494710#3" to="519323436#1"/>
    <trip id="183" depart="111.12" from="1069574886#1" to="582793726#5"/>
    <trip id="184" depart="111.73" from="-1009909875#0" to="831143066"/>
    <trip id="185" depart="112.34" from="519323434#1" to="582793726#6"/>
    <trip id="186" depart="112.95" from="590053401#0" to="532529595#6"/>
    <trip id="187" depart="113.55" from="284588841#2" to="-519322379#1"/>
    <trip id="188" depart="114.16" from="582793726#10" to="1089043911#2"/>
    <trip id="189" depart="114.77" from="1089043911#3" to="830620010#1"/>
    <trip id="190" depart="115.37" from="582793726#8" to="1069574888#2"/>
    <trip id="191" depart="115.98" from="1089043911#2" to="289494710#3"/>
    <trip id="192" depart="116.59" from="289494710#7" to="1069574888#2"/>
    <trip id="193" depart="117.20" from="-519323436#0" to="289494710#7"/>
    <trip id="194" depart="117.80" from="831143066" to="532529595#7"/>
    <trip id="195" depart="118.41" from="830627879#1" to="519323440#0"/>
    <trip id="196" depart="119.02" from="1089043911#0" to="519323434#3"/>
    <trip id="197" depart="119.63" from="-1009909875#0" to="1069574886#3"/>
    <trip id="198" depart="120.23" from="505097816#9" to="519323436#1"/>
    <trip id="199" depart="120.84" from="532529595#7" to="519322349#1"/>
    <trip id="200" depart="121.45" from="519322349#0" to="1009909875#0"/>
    <trip id="201" depart="122.05" from="519322359#5" to="830627880#1"/>
    <trip id="202" depart="122.66" from="641843738#6" to="-519323439#0"/>
    <trip id="203" depart="123.27" from="-519323434#0" to="519322383#1"/>
    <trip id="204" depart="123.88" from="532529595#4" to="1089043911#3"/>
    <trip id="205" depart="124.48" from="786182933#5" to="590053401#1"/>
    <trip id="206" depart="125.09" from="582793726#11" to="1009909875#2"/>
    <trip id="207" depart="125.70" from="-832117945#1" to="-289494710#2"/>
    <trip id="208" depart="126.30" from="1015040650#4" to="519322349#2"/>
    <trip id="209" depart="126.91" from="827278173#1" to="-519322379#1"/>
    <trip id="210" depart="127.52" from="289494710#8" to="531431467#3"/>
    <trip id="211" depart="128.13" from="-641843738#6" to="582793726#11"/>
    <trip id="212" depart="128.73" from="519322359#8" to="1015040650#2"/>
    <trip id="213" depart="129.34" from="532529595#7" to="-1009909875#0"/>
    <trip id="214" depart="129.95" from="590053401#1" to="607435003#1"/>
    <trip id="215" depart="130.56" from="-519323434#5" to="289494710#7"/>
    <trip id="216" depart="131.16" from="-519323440#0" to="832517451#1"/>
    <trip id="217" depart="131.77" from="519322383#0" to="-289494710#7"/>
    <trip id="218" depart="132.38" from="1015040650#5" to="830620010#1"/>
    <trip id="219" depart="132.98" from="519322359#3" to="786182933#6"/>
    <trip id="220" depart="133.59" from="582793726#10" to="832517451#4"/>
    <trip id="221" depart="134.20" from="519323440#0" to="832117945#2"/>
    <trip id="222" depart="134.81" from="830620010#3" to="519323440#0"/>
    <trip id="223" depart="135.41" from="582793726#8" to="519322359#8"/>
    <trip id="224" depart="136.02" from="786182933#8" to="519323434#3"/>
    <trip id="225" depart="136.63" from="830627879#1" to="590053401#1"/>
    <trip id="226" depart="137.24" from="519322359#5" to="1015040650#4"/>
    <trip id="227" depart="137.84" from="1015040650#5" to="531431467#3"/>
    <trip id="228" depart="138.45" from="607435003#1" to="519322383#1"/>
    <trip id="229" depart="139.06" from="531431467#6" to="1015040650#5"/>
    <trip id="230" depart="139.66" from="-519323434#0" to="1069574886#3"/>
    <trip id="231" depart="140.27" from="1069574888#0" to="1089043911#0"/>
    <trip id="232" depart="140.88" from="519323434#1" to="-519323436#1"/>
    <trip id="233" depart="141.49" from="1015040650#3" to="582793726#10"/>
    <trip id="234" depart="142.09" from="582793726#6" to="-289494710#8"/>
    <trip id="235" depart="142.70" from="289494710#8" to="519323434#1"/>
    <trip id="236" depart="143.31" from="360560906#1" to="-832117945#1"/>
    <trip id="237" depart="143.91" from="360560906#1" to="830627880#2"/>
    <trip id="238" depart="144.52" from="519323436#3" to="582793726#11"/>
    <trip id="239" depart="145.13" from="827278173#1" to="607435003#1"/>
    <trip id="240" depart="145.74" from="289494710#3" to="-1009909875#0"/>
    <trip id="241" depart="146.34" from="231177199#5" to="590053401#2"/>
    <trip id="242" depart="146.95" from="827278173#1" to="832517451#1"/>
    <trip id="243" depart="147.56" from="360560906#1" to="590053401#1"/>
    <trip id="244" depart="148.17" from="519323434#1" to="519323439#0"/>
    <trip id="245" depart="148.77" from="1015040650#2" to="1009909875#2"/>
    <trip id="246" depart="149.38" from="519322349#0" to="-289494710#3"/>
    <trip id="247" depart="149.99" from="154261209#4" to="532529595#7"/>
    <trip id="248" depart="150.59" from="289494710#7" to="-519323439#0"/>
    <trip id="249" depart="151.20" from="519322359#4" to="-519323436#0"/>
    <trip id="250" depart="151.81" from="531431467#5" to="-289494710#2"/>
    <trip id="251" depart="152.42" from="289494710#5" to="519323435#1"/>
    <trip id="252" depart="153.02" from="-289494710#10" to="531431467#5"/>
    <trip id="253" depart="153.63" from="-519323436#1" to="519322349#1"/>
    <trip id="254" depart="154.24" from="-289494710#7" to="154646651#3"/>
    <trip id="255" depart="154.84" from="1009909875#0" to="1089043911#2"/>
    <trip id="256" depart="155.45" from="590053401#2" to="154646651#3"/>
    <trip id="257" depart="156.06" from="590053401#1" to="827278173#1"/>
    <trip id="258" depart="156.67" from="1015040650#5" to="-519322383#0"/>
    <trip id="259" depart="157.27" from="-289494710#10" to="519323434#1"/>
    <trip id="260" depart="157.88" from="832517451#4" to="1089043911#4"/>
    <trip id="261" depart="158.49" from="532529595#6" to="641843738#6"/>
    <trip id="262" depart="159.10" from="532529595#7" to="590053401#2"/>
    <trip id="263" depart="159.70" from="832117945#1" to="-641843738#6"/>
    <trip id="264" depart="160.31" from="-289494710#10" to="-519323436#3"/>
    <trip id="265" depart="160.92" from="-519323436#0" to="532529595#6"/>
    <trip id="266" depart="161.52" from="519323436#1" to="1009909875#0"/>
    <trip id="267" depart="162.13" from="582793726#6" to="607435003#1"/>
    <trip id="268" depart="162.74" from="-519323439#0" to="519323439#0"/>
    <trip id="269" depart="163.35" from="590053401#1" to="-519323434#3"/>
    <trip id="270" depart="163.95" from="786182933#5" to="832517451#2"/>
    <trip id="271" depart="164.56" from="-519323434#5" to="-289494710#2"/>
    <trip id="272" depart="165.17" from="1089043911#3" to="532529595#7"/>
    <trip id="273" depart="165.78" from="832117945#2" to="289494710#10"/>
    <trip id="274" depart="166.38" from="582793726#7" to="-519322379#1"/>
    <trip id="275" depart="166.99" from="582793726#5" to="519323440#2"/>
    <trip id="276" depart="167.60" from="-519323434#3" to="607435003#3"/>
    <trip id="277" depart="168.20" from="827278173#1" to="519323439#0"/>
    <trip id="278" depart="168.81" from="-519323435#1" to="832517451#4"/>
    <trip id="279" depart="169.42" from="607435003#3" to="1089043911#4"/>
    <trip id="280" depart="170.03" from="505097816#9" to="154646651#1"/>
    <trip id="281" depart="170.63" from="519322379#1" to="1089043911#3"/>
    <trip id="282" depart="171.24" from="827278173#1" to="786182933#9"/>
    <trip id="283" depart="171.85" from="-519323434#5" to="832517451#1"/>
    <trip id="284" depart="172.45" from="532529595#4" to="827278173#1"/>
    <trip id="285" depart="173.06" from="582793726#6" to="289494710#8"/>
    <trip id="286" depart="173.67" from="582793749#1" to="832517451#2"/>
    <trip id="287" depart="174.28" from="1069574888#0" to="786182933#6"/>
    <trip id="288" depart="174.88" from="519323434#1" to="519322359#4"/>
    <trip id="289" depart="175.49" from="519322349#0" to="582793726#7"/>
    <trip id="290" depart="176.10" from="1069574888#0" to="830620010#1"/>
    <trip id="291" depart="176.71" from="786182933#8" to="-519322383#1"/>
    <trip id="292" depart="177.31" from="830620010#2" to="1015040650#2"/>
    <trip id="293" depart="177.92" from="519322359#4" to="519323440#0"/>
    <trip id="294" depart="178.53" from="289494710#3" to="-289494710#3"/>
    <trip id="295" depart="179.13" from="827278173#1" to="-641843738#4"/>
    <trip id="296" depart="179.74" from="1009909875#0" to="786182933#5"/>
    <trip id="297" depart="180.35" from="154646651#1" to="830620010#4"/>
    <trip id="298" depart="180.96" from="582793726#6" to="1069574886#1"/>
    <trip id="299" depart="181.56" from="-1009909875#2" to="832117945#2"/>
    <trip id="300" depart="182.17" from="-519323434#1" to="582793726#6"/>
    <trip id="301" depart="182.78" from="519322359#6" to="590053401#2"/>
    <trip id="302" depart="183.39" from="582793726#5" to="531431467#5"/>
    <trip id="303" depart="183.99" from="519322359#8" to="786182933#5"/>
    <trip id="304" depart="184.60" from="-519323434#1" to="1009909875#2"/>
    <trip id="305" depart="185.21" from="582793726#5" to="1069574888#3"/>
    <trip id="306" depart="185.81" from="519323436#3" to="519322349#2"/>
    <trip id="307" depart="186.42" from="519323434#0" to="289494710#7"/>
    <trip id="308" depart="187.03" from="590053401#1" to="1089043911#2"/>
    <trip id="309" depart="187.64" from="582793726#6" to="1015040650#5"/>
    <trip id="310" depart="188.24" from="1015040650#5" to="-519323434#3"/>
    <trip id="311" depart="188.85" from="-641843738#6" to="-519323434#3"/>
    <trip id="312" depart="189.46" from="519323434#0" to="607435003#1"/>
    <trip id="313" depart="190.06" from="-519323440#2" to="1009909875#0"/>
    <trip id="314" depart="190.67" from="519322359#6" to="582793726#7"/>
    <trip id="315" depart="191.28" from="832517451#2" to="519323434#0"/>
    <trip id="316" depart="191.89" from="1069574888#2" to="-519323434#0"/>
    <trip id="317" depart="192.49" from="-641843738#6" to="1009909875#2"/>
    <trip id="318" depart="193.10" from="-519323440#2" to="-231177199#5"/>
    <trip id="319" depart="193.71" from="519323434#0" to="1015040650#5"/>
    <trip id="320" depart="194.32" from="832517451#2" to="519323434#5"/>
    <trip id="321" depart="194.92" from="582793726#5" to="-519323436#0"/>
    <trip id="322" depart="195.53" from="830620010#1" to="519322359#5"/>
    <trip id="323" depart="196.14" from="830620010#1" to="519323436#1"/>
    <trip id="324" depart="196.74" from="519322359#4" to="360560906#1"/>
    <trip id="325" depart="197.35" from="-519323440#2" to="-289494710#7"/>
    <trip id="326" depart="197.96" from="831143066" to="519322359#4"/>
    <trip id="327" depart="198.57" from="786182933#6" to="289494710#3"/>
    <trip id="328" depart="199.17" from="-519322383#1" to="531431467#3"/>
    <trip id="329" depart="199.78" from="-289494710#7" to="-519323436#2"/>
    <trip id="330" depart="200.39" from="519323436#1" to="1069574888#2"/>
    <trip id="331" depart="200.99" from="832517451#4" to="-519323434#3"/>
    <trip id="332" depart="201.60" from="607435003#1" to="519323439#0"/>
    <trip id="333" depart="202.21" from="641843738#4" to="1009909875#2"/>
    <trip id="334" depart="202.82" from="519322383#1" to="519322349#0"/>
    <trip id="335" depart="203.42" from="519322349#0" to="830620010#2"/>
    <trip id="336" depart="204.03" from="832517451#3" to="1069574888#3"/>
    <trip id="337" depart="204.64" from="531431467#5" to="519323440#0"/>
    <trip id="338" depart="205.25" from="590053401#0" to="832117945#2"/>
    <trip id="339" depart="205.85" from="1009909875#0" to="1009909875#0"/>
    <trip id="340" depart="206.46" from="582793726#10" to="-519323436#3"/>
    <trip id="341" depart="207.07" from="-519323440#0" to="-519322379#1"/>
    <trip id="342" depart="207.67" from="-1009909875#0" to="519322349#0"/>
    <trip id="343" depart="208.28" from="519323439#0" to="1069574886#3"/>
    <trip id="344" depart="208.89" from="1015040650#3" to="582793726#5"/>
    <trip id="345" depart="209.50" from="582793726#6" to="519322349#0"/>
    <trip id="346" depart="210.10" from="582793726#4" to="831143066"/>
    <trip id="347" depart="210.71" from="641843738#4" to="519323440#2"/>
    <trip id="348" depart="211.32" from="582793726#10" to="832117945#1"/>
    <trip id="349" depart="211.93" from="505097816#9" to="519323434#3"/>
    <trip id="350" depart="212.53" from="532529595#6" to="830627880#2"/>
    <trip id="351" depart="213.14" from="786182933#6" to="-519322379#1"/>
    <trip id="352" depart="213.75" from="-519323439#0" to="1069574888#3"/>
    <trip id="353" depart="214.35" from="590053401#1" to="519323435#1"/>
    <trip id="354" depart="214.96" from="1069574888#3" to="-519323436#0"/>
    <trip id="355" depart="215.57" from="582793726#4" to="582793726#11"/>
    <trip id="356" depart="216.18" from="831143066" to="519322359#6"/>
    <trip id="357" depart="216.78" from="519322359#8" to="-519322383#0"/>
    <trip id="358" depart="217.39" from="-289494710#5" to="289494710#8"/>
    <trip id="359" depart="218.00" from="1089043911#4" to="1015040650#3"/>
    <trip id="360" depart="218.60" from="-519323434#1" to="832517451#2"/>
    <trip id="361" depart="219.21" from="786182933#8" to="519323436#1"/>
    <trip id="362" depart="219.82" from="832117945#1" to="832517451#6"/>
    <trip id="363" depart="220.43" from="582793726#11" to="1015040650#5"/>
    <trip id="364" depart="221.03" from="-289494710#5" to="590053401#2"/>
    <trip id="365" depart="221.64" from="519322359#4" to="531431467#6"/>
    <trip id="366" depart="222.25" from="830627880#2" to="-641843738#4"/>
    <trip id="367" depart="222.86" from="519323439#0" to="531431467#3"/>
    <trip id="368" depart="223.46" from="519322359#8" to="-519322383#1"/>
    <trip id="369" depart="224.07" from="154646651#1" to="1089043911#2"/>
    <trip id="370" depart="224.68" from="582793726#11" to="830620010#2"/>
    <trip id="371" depart="225.28" from="1089043911#4" to="582793726#10"/>
    <trip id="372" depart="225.89" from="1069574888#3" to="832117945#2"/>
    <trip id="373" depart="226.50" from="786182933#5" to="519323434#3"/>
    <trip id="374" depart="227.11" from="519322359#3" to="1089043911#0"/>
    <trip id="375" depart="227.71" from="1089043911#4" to="832517451#2"/>
    <trip id="376" depart="228.32" from="289494710#7" to="519322383#1"/>
    <trip id="377" depart="228.93" from="832517451#3" to="531431467#8"/>
    <trip id="378" depart="229.53" from="519323434#1" to="289494710#5"/>
    <trip id="379" depart="230.14" from="-519323440#2" to="1089043911#5"/>
    <trip id="380" depart="230.75" from="590053401#2" to="519323440#2"/>
    <trip id="381" depart="231.36" from="590053401#2" to="-832117945#1"/>
    <trip id="382" depart="231.96" from="519323434#3" to="831143066"/>
    <trip id="383" depart="232.57" from="519322349#0" to="582793726#11"/>
    <trip id="384" depart="233.18" from="-519323435#1" to="832517451#3"/>
    <trip id="385" depart="233.79" from="531431467#3" to="1015040650#2"/>
    <trip id="386" depart="234.39" from="-519323436#3" to="519323434#3"/>
    <trip id="387" depart="235.00" from="519323434#3" to="-519322383#1"/>
    <trip id="388" depart="235.61" from="832517451#4" to="830627880#2"/>
    <trip id="389" depart="236.21" from="519322359#3" to="-519323434#3"/>
    <trip id="390" depart="236.82" from="786182933#8" to="519322359#6"/>
    <trip id="391" depart="237.43" from="582793726#7" to="519322359#8"/>
    <trip id="392" depart="238.04" from="1069574888#0" to="827278173#1"/>
    <trip id="393" depart="238.64" from="832517451#2" to="1015040650#2"/>
    <trip id="394" depart="239.25" from="519323434#3" to="284588841#2"/>
    <trip id="395" depart="239.86" from="830627880#2" to="519322359#8"/>
    <trip id="396" depart="240.47" from="830620010#2" to="830620010#2"/>
    <trip id="397" depart="241.07" from="1069574888#2" to="641843738#6"/>
    <trip id="398" depart="241.68" from="289494710#8" to="832117945#1"/>
    <trip id="399" depart="242.29" from="519322379#1" to="786182933#9"/>
    <trip id="400" depart="242.89" from="1069574888#2" to="1069574888#2"/>
    <trip id="401" depart="243.50" from="519323439#0" to="832517451#6"/>
    <trip id="402" depart="244.11" from="519322359#6" to="-519323436#2"/>
    <trip id="403" depart="244.72" from="519323434#1" to="1089043911#4"/>