<?xml version="1.0" encoding="UTF-8"?>

<!-- generated on 2022-10-22 00:42:05.992621 by randomTrips.py v1_14_1+0000-f654d7b963e
<configuration>
    <end value="3600"/>
    <insertion-density value="70.0"/>
    <net-file value="xiaoshan.net.xml"/>
    <output-trip-file value="output.trips.xml"/>
</configuration>
-->

<routes xmlns:xsi="http://www.w3.org/2001/XMLSchema-instance" xsi:noNamespaceSchemaLocation="http://sumo.dlr.de/xsd/routes_file.xsd">
    <trip id="0" depart="0.00" from="532529595#4" to="-289494710#2"/>
    <trip id="1" depart="1.30" from="1069574888#2" to="1009909875#2"/>
    <trip id="2" depart="2.60" from="590053401#0" to="532529595#7"/>
    <trip id="3" depart="3.90" from="830620010#3" to="-519322383#1"/>
    <trip id="4" depart="5.20" from="360560906#1" to="-289494710#3"/>
    <trip id="5" depart="6.51" from="1015040650#2" to="519322359#8"/>
    <trip id="6" depart="7.81" from="-289494710#10" to="-641843738#6"/>
    <trip id="7" depart="9.11" from="532529595#6" to="519323434#3"/>
    <trip id="8" depart="10.41" from="1015040650#2" to="519323436#2"/>
    <trip id="9" depart="11.71" from="786182933#3" to="-1009909875#0"/>
    <trip id="10" depart="13.01" from="786182933#3" to="582793726#11"/>
    <trip id="11" depart="14.31" from="154646651#1" to="-519323436#3"/>
    <trip id="12" depart="15.61" from="832117945#2" to="1089043911#3"/>
    <trip id="13" depart="16.92" from="-519323434#1" to="-519323434#0"/>
    <trip id="14" depart="18.22" from="786182933#9" to="519323439#0"/>
    <trip id="15" depart="19.52" from="786182933#3" to="582793726#7"/>
    <trip id="16" depart="20.82" from="519323434#0" to="832517451#3"/>
    <trip id="17" depart="22.12" from="289494710#3" to="519323434#3"/>
    <trip id="18" depart="23.42" from="786182933#6" to="519323440#0"/>
    <trip id="19" depart="24.72" from="830620010#0" to="519323436#1"/>
    <trip id="20" depart="26.02" from="582793726#6" to="-289494710#5"/>
    <trip id="21" depart="27.33" from="1015040650#3" to="1069574886#3"/>
    <trip id="22" depart="28.63" from="-519323434#0" to="1015040609#1"/>
    <trip id="23" depart="29.93" from="-519323434#3" to="1069574886#1"/>
    <trip id="24" depart="31.23" from="532529595#4" to="154646651#1"/>
    <trip id="25" depart="32.53" from="289494710#2" to="-832117945#1"/>
    <trip id="26" depart="33.83" from="1069574888#0" to="832117945#1"/>
    <trip id="27" depart="35.13" from="532529595#6" to="519323439#0"/>
    <trip id="28" depart="36.43" from="-519323440#0" to="582793726#7"/>
    <trip id="29" depart="37.74" from="-519323439#0" to="154646651#3"/>
    <trip id="30" depart="39.04" from="832517451#3" to="531431467#5"/>
    <trip id="31" depart="40.34" from="519323436#1" to="532529595#7"/>
    <trip id="32" depart="41.64" from="786182933#9" to="607435003#3"/>
    <trip id="33" depart="42.94" from="1015040650#3" to="-289494710#3"/>
    <trip id="34" depart="44.24" from="1089043911#3" to="1015040650#5"/>
    <trip id="35" depart="45.54" from="1009909875#0" to="832117945#2"/>
    <trip id="36" depart="46.84" from="830620010#1" to="1089043911#0"/>
    <trip id="37" depart="48.15" from="532529595#7" to="289494710#10"/>
    <trip id="38" depart="49.45" from="830627880#1" to="519322349#1"/>
    <trip id="39" depart="50.75" from="1069574888#0" to="1015040650#2"/>
    <trip id="40" depart="52.05" from="519323436#1" to="1015040650#4"/>
    <trip id="41" depart="53.35" from="519323436#3" to="830627880#1"/>
    <trip id="42" depart="54.65" from="289494710#7" to="1009909875#2"/>
    <trip id="43" depart="55.95" from="832517451#4" to="519322359#8"/>
    <trip id="44" depart="57.25" from="-519323434#1" to="-289494710#5"/>
    <trip id="45" depart="58.55" from="-519323434#5" to="519323440#2"/>
    <trip id="46" depart="59.86" from="641843738#4" to="289494710#7"/>
    <trip id="47" depart="61.16" from="-289494710#8" to="284588841#2"/>
    <trip id="48" depart="62.46" from="832517451#4" to="519323434#0"/>
    <trip id="49" depart="63.76" from="832517451#1" to="830620010#2"/>
    <trip id="50" depart="65.06" from="-1009909875#2" to="582793726#6"/>
    <trip id="51" depart="66.36" from="582793726#4" to="519323434#1"/>
    <trip id="52" depart="67.66" from="1069574888#0" to="531431467#5"/>
    <trip id="53" depart="68.96" from="-519323434#5" to="289494710#8"/>
    <trip id="54" depart="70.27" from="519322359#3" to="832517451#1"/>
    <trip id="55" depart="71.57" from="830620010#1" to="1015040650#4"/>
    <trip id="56" depart="72.87" from="519322379#1" to="-519323440#0"/>
    <trip id="57" depart="74.17" from="830627880#1" to="830620010#3"/>
    <trip id="58" depart="75.47" from="1089043911#0" to="531431467#5"/>
    <trip id="59" depart="76.77" from="531431467#3" to="-519323436#3"/>
    <trip id="60" depart="78.07" from="590053401#2" to="519323434#1"/>
    <trip id="61" depart="79.37" from="607435003#3" to="519323434#0"/>
    <trip id="62" depart="80.68" from="-1009909875#0" to="1089043911#2"/>
    <trip id="63" depart="81.98" from="-289494710#10" to="831143066"/>
    <trip id="64" depart="83.28" from="830620010#2" to="827278173#1"/>
    <trip id="65" depart="84.58" from="1089043911#2" to="-289494710#8"/>
    <trip id="66" depart="85.88" from="830620010#2" to="832117945#2"/>
    <trip id="67" depart="87.18" from="-519323434#1" to="519322359#5"/>
    <trip id="68" depart="88.48" from="-519322383#1" to="590053401#2"/>
    <trip id="69" depart="89.78" from="607435003#1" to="-519323436#0"/>
    <trip id="70" depart="91.09" from="519322359#5" to="519323434#3"/>
    <trip id="71" depart="92.39" from="1069574888#0" to="830620010#3"/>
    <trip id="72" depart="93.69" from="360560906#1" to="1009909875#0"/>
    <trip id="73" depart="94.99" from="519323434#1" to="582793726#7"/>
    <trip id="74" depart="96.29" from="-832117945#1" to="1069574888#3"/>
    <trip id="75" depart="97.59" from="832517451#4" to="531431467#6"/>
    <trip id="76" depart="98.89" from="519322349#0" to="519322383#1"/>
    <trip id="77" depart="100.19" from="-519323435#1" to="1009909875#2"/>
    <trip id="78" depart="101.50" from="154261209#4" to="519323436#2"/>
    <trip id="79" depart="102.80" from="1015040650#3" to="1009909875#2"/>
    <trip id="80" depart="104.10" from="-519322383#1" to="531431467#3"/>
    <trip id="81" depart="105.40" from="1015040650#3" to="830627880#2"/>
    <trip id="82" depart="106.70" from="830620010#0" to="-519322379#1"/>
    <trip id="83" depart="108.00" from="1015040650#4" to="532529595#6"/>
    <trip id="84" depart="109.30" from="1009909875#0" to="-519323436#0"/>
    <trip id="85" depart="110.60" from="831143066" to="519323435#1"/>
    <trip id="86" depart="111.90" from="519322359#5" to="641843738#6"/>
    <trip id="87" depart="113.21" from="786182933#3" to="-641843738#4"/>
    <trip id="88" depart="114.51" from="-519323434#3" to="289494710#8"/>
    <trip id="89" depart="115.81" from="360560906#1" to="519322349#2"/>
    <trip id="90" depart="117.11" from="582793749#1" to="532529595#6"/>
    <trip id="91" depart="118.41" from="832517451#3" to="-519323434#0"/>
    <trip id="92" depart="119.71" from="289494710#7" to="1089043911#3"/>
    <trip id="93" depart="121.01" from="830620010#0" to="1015040650#3"/>
    <trip id="94" depart="122.31" from="-641843738#6" to="519322349#0"/>
    <trip id="95" depart="123.62" from="360560906#1" to="1069574886#1"/>
    <trip id="96" depart="124.92" from="1015040650#5" to="830627880#3"/>
    <trip id="97" depart="126.22" from="519322349#0" to="830620010#2"/>
    <trip id="98" depart="127.52" from="519323434#3" to="-289494710#7"/>
    <trip id="99" depart="128.82" from="832517451#4" to="827278173#1"/>
    <trip id="100" depart="130.12" from="832517451#1" to="831143066"/>
    <trip id="101" depart="131.42" from="786182933#9" to="-519323439#0"/>
    <trip id="102" depart="132.72" from="519322359#6" to="1009909875#0"/>
    <trip id="103" depart="134.03" from="289494710#7" to="-289494710#8"/>
    <trip id="104" depart="135.33" from="289494710#3" to="832517451#4"/>
    <trip id="105" depart="136.63" from="1069574888#0" to="641843738#6"/>
    <trip id="106" depart="137.93" from="519322359#3" to="289494710#7"/>
    <trip id="107" depart="139.23" from="832117945#2" to="832517451#6"/>
    <trip id="108" depart="140.53" from="519323434#3" to="582793726#6"/>
    <trip id="109" depart="141.83" from="-519323436#3" to="1069574888#2"/>
    <trip id="110" depart="143.13" from="832517451#1" to="519323436#1"/>
    <trip id="111" depart="144.44" from="519323434#1" to="590053401#1"/>
    <trip id="112" depart="145.74" from="-289494710#8" to="519323436#2"/>
    <trip id="113" depart="147.04" from="519322379#1" to="830620010#1"/>
    <trip id="114" depart="148.34" from="-519323436#3" to="832517451#1"/>
    <trip id="115" depart="149.64" from="-519323434#0" to="-641843738#4"/>
    <trip id="116" depart="150.94" from="519323440#0" to="532529595#6"/>
    <trip id="117" depart="152.24" from="1015040650#3" to="-519323434#3"/>
    <trip id="118" depart="153.54" from="830620010#3" to="1015040650#2"/>
    <trip id="119" depart="154.84" from="519323440#0" to="519323440#2"/>
    <trip id="120" depart="156.15" from="360560906#1" to="519323436#2"/>
    <trip id="121" depart="157.45" from="519322383#1" to="832117945#1"/>
    <trip id="122" depart="158.75" from="-832117945#1" to="582793726#6"/>
    <trip id="123" depart="160.05" from="1015040650#4" to="289494710#10"/>
    <trip id="124" depart="161.35" from="582793726#11" to="1069574888#2"/>
    <trip id="125" depart="162.65" from="1089043911#3" to="590053401#1"/>
    <trip id="126" depart="163.95" from="-519322383#1" to="519322349#1"/>
    <trip id="127" depart="165.25" from="832517451#4" to="832517451#6"/>
    <trip id="128" depart="166.56" from="-519322383#1" to="1009909875#0"/>
    <trip id="129" depart="167.86" from="1069574888#0" to="831143066"/>
    <trip id="130" depart="169.16" from="830620010#2" to="830620010#4"/>
    <trip id="131" depart="170.46" from="289494710#2" to="-519323436#3"/>
    <trip id="132" depart="171.76" from="786182933#8" to="582793726#11"/>
    <trip id="133" depart="173.06" from="531431467#3" to="832517451#4"/>
    <trip id="134" depart="174.36" from="532529595#7" to="-1009909875#0"/>
    <trip id="135" depart="175.66" from="786182933#5" to="1069574888#2"/>
    <trip id="136" depart="176.97" from="582793726#10" to="832117945#1"/>
    <trip id="137" depart="178.27" from="-519323436#1" to="-519323434#3"/>
    <trip id="138" depart="179.57" from="-519323434#5" to="519323434#5"/>
    <trip id="139" depart="180.87" from="1069574888#0" to="519323439#0"/>
    <trip id="140" depart="182.17" from="582793726#8" to="-832117945#1"/>
    <trip id="141" depart="183.47" from="532529595#4" to="1015040650#4"/>
    <trip id="142" depart="184.77" from="519322359#6" to="830627880#2"/>
    <trip id="143" depart="186.07" from="786182933#9" to="-519322383#1"/>
    <trip id="144" depart="187.38" from="360560906#1" to="1069574886#1"/>
    <trip id="145" depart="188.68" from="-1009909875#0" to="607435003#1"/>
    <trip id="146" depart="189.98" from="532529595#4" to="1015040650#4"/>
    <trip id="147" depart="191.28" from="590053401#0" to="519323434#3"/>
    <trip id="148" depart="192.58" from="505097816#9" to="-231177199#5"/>
    <trip id="149" depart="193.88" from="-519322383#1" to="830620010#4"/>
    <trip id="150" depart="195.18" from="830627879#1" to="519323434#3"/>
    <trip id="151" depart="196.48" from="786182933#8" to="519323436#2"/>
    <trip id="152" depart="197.79" from="-519323436#2" to="-519323436#0"/>
    <trip id="153" depart="199.09" from="1089043911#2" to="830627880#1"/>
    <trip id="154" depart="200.39" from="641843738#6" to="830620010#2"/>
    <trip id="155" depart="201.69" from="830627879#1" to="1009909875#0"/>
    <trip id="156" depart="202.99" from="1015040650#5" to="-519323434#0"/>
    <trip id="157" depart="204.29" from="607435003#3" to="830620010#4"/>
    <trip id="158" depart="205.59" from="289494710#8" to="519323440#2"/>
    <trip id="159" depart="206.89" from="-519323436#3" to="831143066"/>
    <trip id="160" depart="208.19" from="830620010#0" to="832517451#3"/>
    <trip id="161" depart="209.50" from="786182933#3" to="830620010#4"/>
    <trip id="162" depart="210.80" from="-289494710#10" to="582793726#8"/>
    <trip id="163" depart="212.10" from="154261209#4" to="831143066"/>
    <trip id="164" depart="213.40" from="786182933#3" to="830620010#2"/>
    <trip id="165" depart="214.70" from="786182933#3" to="1015040650#5"/>
    <trip id="166" depart="216.00" from="641843738#4" to="-519323434#1"/>
    <trip id="167" depart="217.30" from="830620010#1" to="830620010#2"/>
    <trip id="168" depart="218.60" from="1015040650#2" to="786182933#8"/>
    <trip id="169" depart="219.91" from="519322359#3" to="1069574888#3"/>
    <trip id="170" depart="221.21" from="641843738#6" to="1009909875#2"/>
    <trip id="171" depart="222.51" from="-289494710#10" to="-641843738#6"/>
    <trip id="172" depart="223.81" from="1089043911#4" to="830620010#2"/>
    <trip id="173" depart="225.11" from="832517451#1" to="1069574886#1"/>
    <trip id="174" depart="226.41" from="532529595#4" to="289494710#10"/>
    <trip id="175" depart="227.71" from="832517451#3" to="519323434#1"/>
    <trip id="176" depart="229.01" from="831143066" to="-519323434#3"/>
    <trip id="177" depart="230.32" from="832517451#1" to="-519323440#0"/>
    <trip id="178" depart="231.62" from="832517451#1" to="1015040650#4"/>
    <trip id="179" depart="232.92" from="-519323434#5" to="289494710#8"/>
    <trip id="180" depart="234.22" from="582793749#1" to="1069574888#3"/>
    <trip id="181" depart="235.52" from="531431467#3" to="519322359#8"/>
    <trip id="182" depart="236.82" from="289494710#3" to="519323436#1"/>
    <trip id="183" depart="238.12" from="1069574886#1" to="582793726#5"/>
    <trip id="184" depart="239.42" from="-1009909875#0" to="831143066"/>
    <trip id="185" depart="240.73" from="519323434#1" to="582793726#6"/>
    <trip id="186" depart="242.03" from="590053401#0" to="532529595#6"/>
    <trip id="187" depart="243.33" from="284588841#2" to="-519322379#1"/>
    <trip id="188" depart="244.63" from="582793726#10" to="1089043911#2"/>
    <trip id="189" depart="245.93" from="1089043911#3" to="830620010#1"/>
    <trip id="190" depart="247.23" from="582793726#8" to="1069574888#2"/>
    <trip id="191" depart="248.53" from="1089043911#2" to="289494710#3"/>
    <trip id="192" depart="249.83" from="289494710#7" to="1069574888#2"/>
    <trip id="193" depart="251.14" from="-519323436#0" to="289494710#7"/>
    <trip id="194" depart="252.44" from="831143066" to="532529595#7"/>
    <trip id="195" depart="253.74" from="830627879#1" to="519323440#0"/>
    <trip id="196" depart="255.04" from="1089043911#0" to="519323434#3"/>
    <trip id="197" depart="256.34" from="-1009909875#0" to="1069574886#3"/>
    <trip id="198" depart="257.64" from="505097816#9" to="519323436#1"/>
    <trip id="199" depart="258.94" from="532529595#7" to="519322349#1"/>
    <trip id="200" depart="260.24" from="519322349#0" to="1009909875#0"/>
    <trip id="201" depart="261.54" from="519322359#5" to="830627880#1"/>
    <trip id="202" depart="262.85" from="641843738#6" to="-519323439#0"/>
    <trip id="203" depart="264.15" from="-519323434#0" to="519322383#1"/>
    <trip id="204" depart="265.45" from="532529595#4" to="1089043911#3"/>
    <trip id="205" depart="266.75" from="786182933#5" to="590053401#1"/>
    <trip id="206" depart="268.05" from="582793726#11" to="1009909875#2"/>
    <trip id="207" depart="269.35" from="-832117945#1" to="-289494710#2"/>
    <trip id="208" depart="270.65" from="1015040650#4" to="519322349#2"/>
    <trip id="209" depart="271.95" from="827278173#1" to="-519322379#1"/>
    <trip id="210" depart="273.26" from="289494710#8" to="531431467#3"/>
    <trip id="211" depart="274.56" from="-641843738#6" to="582793726#11"/>
    <trip id="212" depart="275.86" from="519322359#8" to="1015040650#2"/>
    <trip id="213" depart="277.16" from="532529595#7" to="-1009909875#0"/>
    <trip id="214" depart="278.46" from="590053401#1" to="607435003#1"/>
    <trip id="215" depart="279.76" from="-519323434#5" to="289494710#7"/>
    <trip id="216" depart="281.06" from="-519323440#0" to="832517451#1"/>
    <trip id="217" depart="282.36" from="519322383#0" to="-289494710#7"/>
    <trip id="218" depart="283.67" from="1015040650#5" to="830620010#1"/>
    <trip id="219" depart="284.97" from="519322359#3" to="786182933#6"/>
    <trip id="220" depart="286.27" from="582793726#10" to="832517451#4"/>
    <trip id="221" depart="287.57" from="519323440#0" to="832117945#2"/>
    <trip id="222" depart="288.87" from="830620010#3" to="519323440#0"/>
    <trip id="223" depart="290.17" from="582793726#8" to="519322359#8"/>
    <trip id="224" depart="291.47" from="786182933#8" to="519323434#3"/>
    <trip id="225" depart="292.77" from="830627879#1" to="590053401#1"/>
    <trip id="226" depart="294.08" from="519322359#5" to="1015040650#4"/>
    <trip id="227" depart="295.38" from="1015040650#5" to="531431467#3"/>
    <trip id="228" depart="296.68" from="607435003#1" to="519322383#1"/>
    <trip id="229" depart="297.98" from="531431467#6" to="1015040650#5"/>
    <trip id="230" depart="299.28" from="-519323434#0" to="1069574886#3"/>
    <trip id="231" depart="300.58" from="1069574888#0" to="1089043911#0"/>
    <trip id="232" depart="301.88" from="519323434#1" to="-519323436#1"/>
    <trip id="233" depart="303.18" from="1015040650#3" to="582793726#10"/>
    <trip id="234" depart="304.49" from="582793726#6" to="-289494710#8"/>
    <trip id="235" depart="305.79" from="289494710#8" to="519323434#1"/>
    <trip id="236" depart="307.09" from="360560906#1" to="-832117945#1"/>
    <trip id="237" depart="308.39" from="360560906#1" to="830627880#2"/>
    <trip id="238" depart="309.69" from="519323436#3" to="582793726#11"/>
    <trip id="239" depart="310.99" from="827278173#1" to="607435003#1"/>
    <trip id="240" depart="312.29" from="289494710#3" to="-1009909875#0"/>
    <trip id="241" depart="313.59" from="231177199#5" to="590053401#2"/>
    <trip id="242" depart="314.89" from="827278173#1" to="832517451#1"/>
    <trip id="243" depart="316.20" from="360560906#1" to="590053401#1"/>
    <trip id="244" depart="317.50" from="519323434#1" to="519323439#0"/>
    <trip id="245" depart="318.80" from="1015040650#2" to="1009909875#2"/>
    <trip id="246" depart="320.10" from="519322349#0" to="-289494710#3"/>
    <trip id="247" depart="321.40" from="154261209#4" to="532529595#7"/>
    <trip id="248" depart="322.70" from="289494710#7" to="-519323439#0"/>
    <trip id="249" depart="324.00" from="519322359#4" to="-519323436#0"/>
    <trip id="250" depart="325.30" from="531431467#5" to="-289494710#2"/>
    <trip id="251" depart="326.61" from="289494710#5" to="519323435#1"/>
    <trip id="252" depart="327.91" from="-289494710#10" to="531431467#5"/>
    <trip id="253" depart="329.21" from="-519323436#1" to="519322349#1"/>
    <trip id="254" depart="330.51" from="-289494710#7" to="154646651#3"/>
    <trip id="255" depart="331.81" from="1009909875#0" to="1089043911#2"/>
    <trip id="256" depart="333.11" from="590053401#2" to="154646651#3"/>
    <trip id="257" depart="334.41" from="590053401#1" to="827278173#1"/>
    <trip id="258" depart="335.71" from="1015040650#5" to="-519322383#0"/>
    <trip id="259" depart="337.02" from="-289494710#10" to="519323434#1"/>
    <trip id="260" depart="338.32" from="832517451#4" to="1089043911#4"/>
    <trip id="261" depart="339.62" from="532529595#6" to="641843738#6"/>
    <trip id="262" depart="340.92" from="532529595#7" to="590053401#2"/>
    <trip id="263" depart="342.22" from="832117945#1" to="-641843738#6"/>
    <trip id="264" depart="343.52" from="-289494710#10" to="-519323436#3"/>
    <trip id="265" depart="344.82" from="-519323436#0" to="532529595#6"/>
    <trip id="266" depart="346.12" from="519323436#1" to="1009909875#0"/>
    <trip id="267" depart="347.43" from="582793726#6" to="607435003#1"/>
    <trip id="268" depart="348.73" from="-519323439#0" to="519323439#0"/>
    <trip id="269" depart="350.03" from="590053401#1" to="-519323434#3"/>
    <trip id="270" depart="351.33" from="786182933#5" to="832517451#2"/>
    <trip id="271" depart="352.63" from="-519323434#5" to="-289494710#2"/>
    <trip id="272" depart="353.93" from="1089043911#3" to="532529595#7"/>
    <trip id="273" depart="355.23" from="832117945#2" to="289494710#10"/>
    <trip id="274" depart="356.53" from="582793726#7" to="-519322379#1"/>
    <trip id="275" depart="357.84" from="582793726#5" to="519323440#2"/>
    <trip id="276" depart="359.14" from="-519323434#3" to="607435003#3"/>
    <trip id="277" depart="360.44" from="827278173#1" to="519323439#0"/>
    <trip id="278" depart="361.74" from="-519323435#1" to="832517451#4"/>
    <trip id="279" depart="363.04" from="607435003#3" to="1089043911#4"/>
    <trip id="280" depart="364.34" from="505097816#9" to="154646651#1"/>
    <trip id="281" depart="365.64" from="519322379#1" to="1089043911#3"/>
    <trip id="282" depart="366.94" from="827278173#1" to="786182933#9"/>
    <trip id="283" depart="368.24" from="-519323434#5" to="832517451#1"/>
    <trip id="284" depart="369.55" from="532529595#4" to="827278173#1"/>
    <trip id="285" depart="370.85" from="582793726#6" to="289494710#8"/>
    <trip id="286" depart="372.15" from="582793749#1" to="832517451#2"/>
    <trip id="287" depart="373.45" from="1069574888#0" to="786182933#6"/>
    <trip id="288" depart="374.75" from="519323434#1" to="519322359#4"/>
    <trip id="289" depart="376.05" from="519322349#0" to="582793726#7"/>
    <trip id="290" depart="377.35" from="1069574888#0" to="830620010#1"/>
    <trip id="291" depart="378.65" from="786182933#8" to="-519322383#1"/>
    <trip id="292" depart="379.96" from="830620010#2" to="1015040650#2"/>
    <trip id="293" depart="381.26" from="519322359#4" to="519323440#0"/>
    <trip id="294" depart="382.56" from="289494710#3" to="-289494710#3"/>
    <trip id="295" depart="383.86" from="827278173#1" to="-641843738#4"/>
    <trip id="296" depart="385.16" from="1009909875#0" to="786182933#5"/>
    <trip id="297" depart="386.46" from="154646651#1" to="830620010#4"/>
    <trip id="298" depart="387.76" from="582793726#6" to="1069574886#1"/>
    <trip id="299" depart="389.06" from="-1009909875#2" to="832117945#2"/>
    <trip id="300" depart="390.37" from="-519323434#1" to="582793726#6"/>
    <trip id="301" depart="391.67" from="519322359#6" to="590053401#2"/>
    <trip id="302" depart="392.97" from="582793726#5" to="531431467#5"/>
    <trip id="303" depart="394.27" from="519322359#8" to="786182933#5"/>
    <trip id="304" depart="395.57" from="-519323434#1" to="1009909875#2"/>
    <trip id="305" depart="396.87" from="582793726#5" to="1069574888#3"/>
    <trip id="306" depart="398.17" from="519323436#3" to="519322349#2"/>
    <trip id="307" depart="399.47" from="519323434#0" to="289494710#7"/>
    <trip id="308" depart="400.78" from="590053401#1" to="1089043911#2"/>
    <trip id="309" depart="402.08" from="582793726#6" to="1015040650#5"/>
    <trip id="310" depart="403.38" from="1015040650#5" to="-519323434#3"/>
    <trip id="311" depart="404.68" from="-641843738#6" to="-519323434#3"/>
    <trip id="312" depart="405.98" from="519323434#0" to="607435003#1"/>
    <trip id="313" depart="407.28" from="-519323440#2" to="1009909875#0"/>
    <trip id="314" depart="408.58" from="519322359#6" to="582793726#7"/>
    <trip id="315" depart="409.88" from="832517451#2" to="519323434#0"/>
    <trip id="316" depart="411.18" from="1069574888#2" to="-519323434#0"/>
    <trip id="317" depart="412.49" from="-641843738#6" to="1009909875#2"/>
    <trip id="318" depart="413.79" from="-519323440#2" to="-231177199#5"/>
    <trip id="319" depart="415.09" from="519323434#0" to="1015040650#5"/>
    <trip id="320" depart="416.39" from="832517451#2" to="519323434#5"/>
    <trip id="321" depart="417.69" from="582793726#5" to="-519323436#0"/>
    <trip id="322" depart="418.99" from="830620010#1" to="519322359#5"/>
    <trip id="323" depart="420.29" from="830620010#1" to="519323436#1"/>
    <trip id="324" depart="421.59" from="519322359#4" to="360560906#1"/>
    <trip id="325" depart="422.90" from="-519323440#2" to="-289494710#7"/>
    <trip id="326" depart="424.20" from="831143066" to="519322359#4"/>
    <trip id="327" depart="425.50" from="786182933#6" to="289494710#3"/>
    <trip id="328" depart="426.80" from="-519322383#1" to="531431467#3"/>
    <trip id="329" depart="428.10" from="-289494710#7" to="-519323436#2"/>
    <trip id="330" depart="429.40" from="519323436#1" to="1069574888#2"/>
    <trip id="331" depart="430.70" from="832517451#4" to="-519323434#3"/>
    <trip id="332" depart="432.00" from="607435003#1" to="519323439#0"/>
    <trip id="333" depart="433.31" from="641843738#4" to="1009909875#2"/>
    <trip id="334" depart="434.61" from="519322383#1" to="519322349#0"/>
    <trip id="335" depart="435.91" from="519322349#0" to="830620010#2"/>
    <trip id="336" depart="437.21" from="832517451#3" to="1069574888#3"/>
    <trip id="337" depart="438.51" from="531431467#5" to="519323440#0"/>
    <trip id="338" depart="439.81" from="590053401#0" to="832117945#2"/>
    <trip id="339" depart="441.11" from="1009909875#0" to="1009909875#0"/>
    <trip id="340" depart="442.41" from="582793726#10" to="-519323436#3"/>
    <trip id="341" depart="443.72" from="-519323440#0" to="-519322379#1"/>
    <trip id="342" depart="445.02" from="-1009909875#0" to="519322349#0"/>
    <trip id="343" depart="446.32" from="519323439#0" to="1069574886#3"/>
    <trip id="344" depart="447.62" from="1015040650#3" to="582793726#5"/>
    <trip id="345" depart="448.92" from="582793726#6" to="519322349#0"/>
    <trip id="346" depart="450.22" from="582793726#4" to="831143066"/>
    <trip id="347" depart="451.52" from="641843738#4" to="519323440#2"/>
    <trip id="348" depart="452.82" from="582793726#10" to="832117945#1"/>
    <trip id="349" depart="454.13" from="505097816#9" to="519323434#3"/>
    <trip id="350" depart="455.43" from="532529595#6" to="830627880#2"/>
    <trip id="351" depart="456.73" from="786182933#6" to="-519322379#1"/>
    <trip id="352" depart="458.03" from="-519323439#0" to="1069574888#3"/>
    <trip id="353" depart="459.33" from="590053401#1" to="519323435#1"/>
    <trip id="354" depart="460.63" from="1069574888#3" to="-519323436#0"/>
    <trip id="355" depart="461.93" from="582793726#4" to="582793726#11"/>
    <trip id="356" depart="463.23" from="831143066" to="519322359#6"/>
    <trip id="357" depart="464.53" from="519322359#8" to="-519322383#0"/>
    <trip id="358" depart="465.84" from="-289494710#5" to="289494710#8"/>
    <trip id="359" depart="467.14" from="1089043911#4" to="1015040650#3"/>
    <trip id="360" depart="468.44" from="-519323434#1" to="832517451#2"/>
    <trip id="361" depart="469.74" from="786182933#8" to="519323436#1"/>
    <trip id="362" depart="471.04" from="832117945#1" to="832517451#6"/>
    <trip id="363" depart="472.34" from="582793726#11" to="1015040650#5"/>
    <trip id="364" depart="473.64" from="-289494710#5" to="590053401#2"/>
    <trip id="365" depart="474.94" from="519322359#4" to="531431467#6"/>
    <trip id="366" depart="476.25" from="830627880#2" to="-641843738#4"/>
    <trip id="367" depart="477.55" from="519323439#0" to="531431467#3"/>
    <trip id="368" depart="478.85" from="519322359#8" to="-519322383#1"/>
    <trip id="369" depart="480.15" from="154646651#1" to="1089043911#2"/>
    <trip id="370" depart="481.45" from="582793726#11" to="830620010#2"/>
    <trip id="371" depart="482.75" from="1089043911#4" to="582793726#10"/>
    <trip id="372" depart="484.05" from="1069574888#3" to="832117945#2"/>
    <trip id="373" depart="485.35" from="786182933#5" to="519323434#3"/>
    <trip id="374" depart="486.66" from="519322359#3" to="1089043911#0"/>
    <trip id="375" depart="487.96" from="1089043911#4" to="832517451#2"/>
    <trip id="376" depart="489.26" from="289494710#7" to="519322383#1"/>
    <trip id="377" depart="490.56" from="832517451#3" to="531431467#8"/>
    <trip id="378" depart="491.86" from="519323434#1" to="289494710#5"/>
    <trip id="379" depart="493.16" from="-519323440#2" to="1089043911#5"/>
    <trip id="380" depart="494.46" from="590053401#2" to="519323440#2"/>
    <trip id="381" depart="495.76" from="590053401#2" to="-832117945#1"/>
    <trip id="382" depart="497.07" from="519323434#3" to="831143066"/>
    <trip id="383" depart="498.37" from="519322349#0" to="582793726#11"/>
    <trip id="384" depart="499.67" from="-519323435#1" to="832517451#3"/>
    <trip id="385" depart="500.97" from="531431467#3" to="1015040650#2"/>
    <trip id="386" depart="502.27" from="-519323436#3" to="519323434#3"/>
    <trip id="387" depart="503.57" from="519323434#3" to="-519322383#1"/>
    <trip id="388" depart="504.87" from="832517451#4" to="830627880#2"/>
    <trip id="389" depart="506.17" from="519322359#3" to="-519323434#3"/>
    <trip id="390" depart="507.48" from="786182933#8" to="519322359#6"/>
    <trip id="391" depart="508.78" from="582793726#7" to="519322359#8"/>
    <trip id="392" depart="510.08" from="1069574888#0" to="827278173#1"/>
    <trip id="393" depart="511.38" from="832517451#2" to="1015040650#2"/>
    <trip id="394" depart="512.68" from="519323434#3" to="284588841#2"/>
    <trip id="395" depart="513.98" from="830627880#2" to="519322359#8"/>
    <trip id="396" depart="515.28" from="830620010#2" to="830620010#2"/>
    <trip id="397" depart="516.58" from="1069574888#2" to="641843738#6"/>
    <trip id="398" depart="517.88" from="289494710#8" to="832117945#1"/>
    <trip id="399" depart="519.19" from="519322379#1" to="786182933#9"/>
    <trip id="400" depart="520.49" from="1069574888#2" to="1069574888#2"/>
    <trip id="401" depart="521.79" from="519323439#0" to="832517451#6"/>
    <trip id="402" depart="523.09" from="519322359#6" to="-519323436#2"/>