<?xml version="1.0" encoding="UTF-8"?>

<!-- generated on 2022-10-23 22:30:15.795855 by randomTrips.py v1_14_0+0002-ebd7f0b131e
<configuration>
    <end value="3600"/>
    <insertion-density value="120.0"/>
    <net-file value="xiaoshan.net.xml"/>
    <output-trip-file value="xiaoshan3.trips.xml"/>
</configuration>
-->

<routes xmlns:xsi="http://www.w3.org/2001/XMLSchema-instance" xsi:noNamespaceSchemaLocation="http://sumo.dlr.de/xsd/routes_file.xsd">
    <trip id="0" depart="0.00" from="532529595#4" to="-289494710#2"/>
    <trip id="1" depart="0.76" from="1069574888#2" to="1009909875#2"/>
    <trip id="2" depart="1.52" from="590053401#0" to="532529595#7"/>
    <trip id="3" depart="2.28" from="830620010#3" to="-519322383#1"/>
    <trip id="4" depart="3.04" from="360560906#1" to="-289494710#3"/>
    <trip id="5" depart="3.80" from="1015040650#2" to="519322359#8"/>
    <trip id="6" depart="4.55" from="-289494710#10" to="-641843738#6"/>
    <trip id="7" depart="5.31" from="532529595#6" to="519323434#3"/>
    <trip id="8" depart="6.07" from="1015040650#2" to="519323436#2"/>
    <trip id="9" depart="6.83" from="786182933#3" to="-1009909875#0"/>
    <trip id="10" depart="7.59" from="786182933#3" to="582793726#11"/>
    <trip id="11" depart="8.35" from="154646651#1" to="-519323436#3"/>
    <trip id="12" depart="9.11" from="832117945#2" to="1089043911#3"/>
    <trip id="13" depart="9.87" from="-519323434#1" to="-519323434#0"/>
    <trip id="14" depart="10.63" from="786182933#9" to="519323439#0"/>
    <trip id="15" depart="11.39" from="786182933#3" to="582793726#7"/>
    <trip id="16" depart="12.14" from="519323434#0" to="832517451#3"/>
    <trip id="17" depart="12.90" from="289494710#3" to="519323434#3"/>
    <trip id="18" depart="13.66" from="786182933#6" to="519323440#0"/>
    <trip id="19" depart="14.42" from="830620010#0" to="519323436#1"/>
    <trip id="20" depart="15.18" from="582793726#6" to="-289494710#5"/>
    <trip id="21" depart="15.94" from="1015040650#3" to="1069574886#3"/>
    <trip id="22" depart="16.70" from="-519323434#0" to="1015040609#1"/>
    <trip id="23" depart="17.46" from="-519323434#3" to="1069574886#1"/>
    <trip id="24" depart="18.22" from="532529595#4" to="154646651#1"/>
    <trip id="25" depart="18.98" from="289494710#2" to="-832117945#1"/>
    <trip id="26" depart="19.74" from="1069574888#0" to="832117945#1"/>
    <trip id="27" depart="20.49" from="532529595#6" to="519323439#0"/>
    <trip id="28" depart="21.25" from="-519323440#0" to="582793726#7"/>
    <trip id="29" depart="22.01" from="-519323439#0" to="154646651#3"/>
    <trip id="30" depart="22.77" from="832517451#3" to="531431467#5"/>
    <trip id="31" depart="23.53" from="519323436#1" to="532529595#7"/>
    <trip id="32" depart="24.29" from="786182933#9" to="607435003#3"/>
    <trip id="33" depart="25.05" from="1015040650#3" to="-289494710#3"/>
    <trip id="34" depart="25.81" from="1089043911#3" to="1015040650#5"/>
    <trip id="35" depart="26.57" from="1009909875#0" to="832117945#2"/>
    <trip id="36" depart="27.33" from="830620010#1" to="1089043911#0"/>
    <trip id="37" depart="28.08" from="532529595#7" to="289494710#10"/>
    <trip id="38" depart="28.84" from="830627880#1" to="519322349#1"/>
    <trip id="39" depart="29.60" from="1069574888#0" to="1015040650#2"/>
    <trip id="40" depart="30.36" from="519323436#1" to="1015040650#4"/>
    <trip id="41" depart="31.12" from="519323436#3" to="830627880#1"/>
    <trip id="42" depart="31.88" from="289494710#7" to="1009909875#2"/>
    <trip id="43" depart="32.64" from="832517451#4" to="519322359#8"/>
    <trip id="44" depart="33.40" from="-519323434#1" to="-289494710#5"/>
    <trip id="45" depart="34.16" from="-519323434#5" to="519323440#2"/>
    <trip id="46" depart="34.92" from="641843738#4" to="289494710#7"/>
    <trip id="47" depart="35.68" from="-289494710#8" to="284588841#2"/>
    <trip id="48" depart="36.43" from="832517451#4" to="519323434#0"/>
    <trip id="49" depart="37.19" from="832517451#1" to="830620010#2"/>
    <trip id="50" depart="37.95" from="-1009909875#2" to="582793726#6"/>
    <trip id="51" depart="38.71" from="582793726#4" to="519323434#1"/>
    <trip id="52" depart="39.47" from="1069574888#0" to="531431467#5"/>
    <trip id="53" depart="40.23" from="-519323434#5" to="289494710#8"/>
    <trip id="54" depart="40.99" from="519322359#3" to="832517451#1"/>
    <trip id="55" depart="41.75" from="830620010#1" to="1015040650#4"/>
    <trip id="56" depart="42.51" from="519322379#1" to="-519323440#0"/>
    <trip id="57" depart="43.27" from="830627880#1" to="830620010#3"/>
    <trip id="58" depart="44.02" from="1089043911#0" to="531431467#5"/>
    <trip id="59" depart="44.78" from="531431467#3" to="-519323436#3"/>
    <trip id="60" depart="45.54" from="590053401#2" to="519323434#1"/>
    <trip id="61" depart="46.30" from="607435003#3" to="519323434#0"/>
    <trip id="62" depart="47.06" from="-1009909875#0" to="1089043911#2"/>
    <trip id="63" depart="47.82" from="-289494710#10" to="831143066"/>
    <trip id="64" depart="48.58" from="830620010#2" to="827278173#1"/>
    <trip id="65" depart="49.34" from="1089043911#2" to="-289494710#8"/>
    <trip id="66" depart="50.10" from="830620010#2" to="832117945#2"/>
    <trip id="67" depart="50.86" from="-519323434#1" to="519322359#5"/>
    <trip id="68" depart="51.61" from="-519322383#1" to="590053401#2"/>
    <trip id="69" depart="52.37" from="607435003#1" to="-519323436#0"/>
    <trip id="70" depart="53.13" from="519322359#5" to="519323434#3"/>
    <trip id="71" depart="53.89" from="1069574888#0" to="830620010#3"/>
    <trip id="72" depart="54.65" from="360560906#1" to="1009909875#0"/>
    <trip id="73" depart="55.41" from="519323434#1" to="582793726#7"/>
    <trip id="74" depart="56.17" from="-832117945#1" to="1069574888#3"/>
    <trip id="75" depart="56.93" from="832517451#4" to="531431467#6"/>
    <trip id="76" depart="57.69" from="519322349#0" to="519322383#1"/>
    <trip id="77" depart="58.45" from="-519323435#1" to="1009909875#2"/>
    <trip id="78" depart="59.21" from="154261209#4" to="519323436#2"/>
    <trip id="79" depart="59.96" from="1015040650#3" to="1009909875#2"/>
    <trip id="80" depart="60.72" from="-519322383#1" to="531431467#3"/>
    <trip id="81" depart="61.48" from="1015040650#3" to="830627880#2"/>
    <trip id="82" depart="62.24" from="830620010#0" to="-519322379#1"/>
    <trip id="83" depart="63.00" from="1015040650#4" to="532529595#6"/>
    <trip id="84" depart="63.76" from="1009909875#0" to="-519323436#0"/>
    <trip id="85" depart="64.52" from="831143066" to="519323435#1"/>
    <trip id="86" depart="65.28" from="519322359#5" to="641843738#6"/>
    <trip id="87" depart="66.04" from="786182933#3" to="-641843738#4"/>
    <trip id="88" depart="66.80" from="-519323434#3" to="289494710#8"/>
    <trip id="89" depart="67.55" from="360560906#1" to="519322349#2"/>
    <trip id="90" depart="68.31" from="582793749#1" to="532529595#6"/>
    <trip id="91" depart="69.07" from="832517451#3" to="-519323434#0"/>
    <trip id="92" depart="69.83" from="289494710#7" to="1089043911#3"/>
    <trip id="93" depart="70.59" from="830620010#0" to="1015040650#3"/>
    <trip id="94" depart="71.35" from="-641843738#6" to="519322349#0"/>
    <trip id="95" depart="72.11" from="360560906#1" to="1069574886#1"/>
    <trip id="96" depart="72.87" from="1015040650#5" to="830627880#3"/>
    <trip id="97" depart="73.63" from="519322349#0" to="830620010#2"/>
    <trip id="98" depart="74.39" from="519323434#3" to="-289494710#7"/>
    <trip id="99" depart="75.15" from="832517451#4" to="827278173#1"/>
    <trip id="100" depart="75.90" from="832517451#1" to="831143066"/>
    <trip id="101" depart="76.66" from="786182933#9" to="-519323439#0"/>
    <trip id="102" depart="77.42" from="519322359#6" to="1009909875#0"/>
    <trip id="103" depart="78.18" from="289494710#7" to="-289494710#8"/>
    <trip id="104" depart="78.94" from="289494710#3" to="832517451#4"/>
    <trip id="105" depart="79.70" from="1069574888#0" to="641843738#6"/>
    <trip id="106" depart="80.46" from="519322359#3" to="289494710#7"/>
    <trip id="107" depart="81.22" from="832117945#2" to="832517451#6"/>
    <trip id="108" depart="81.98" from="519323434#3" to="582793726#6"/>
    <trip id="109" depart="82.74" from="-519323436#3" to="1069574888#2"/>
    <trip id="110" depart="83.49" from="832517451#1" to="519323436#1"/>
    <trip id="111" depart="84.25" from="519323434#1" to="590053401#1"/>
    <trip id="112" depart="85.01" from="-289494710#8" to="519323436#2"/>
    <trip id="113" depart="85.77" from="519322379#1" to="830620010#1"/>
    <trip id="114" depart="86.53" from="-519323436#3" to="832517451#1"/>
    <trip id="115" depart="87.29" from="-519323434#0" to="-641843738#4"/>
    <trip id="116" depart="88.05" from="519323440#0" to="532529595#6"/>
    <trip id="117" depart="88.81" from="1015040650#3" to="-519323434#3"/>
    <trip id="118" depart="89.57" from="830620010#3" to="1015040650#2"/>
    <trip id="119" depart="90.33" from="519323440#0" to="519323440#2"/>
    <trip id="120" depart="91.09" from="360560906#1" to="519323436#2"/>
    <trip id="121" depart="91.84" from="519322383#1" to="832117945#1"/>
    <trip id="122" depart="92.60" from="-832117945#1" to="582793726#6"/>
    <trip id="123" depart="93.36" from="1015040650#4" to="289494710#10"/>
    <trip id="124" depart="94.12" from="582793726#11" to="1069574888#2"/>
    <trip id="125" depart="94.88" from="1089043911#3" to="590053401#1"/>
    <trip id="126" depart="95.64" from="-519322383#1" to="519322349#1"/>
    <trip id="127" depart="96.40" from="832517451#4" to="832517451#6"/>
    <trip id="128" depart="97.16" from="-519322383#1" to="1009909875#0"/>
    <trip id="129" depart="97.92" from="1069574888#0" to="831143066"/>
    <trip id="130" depart="98.68" from="830620010#2" to="830620010#4"/>
    <trip id="131" depart="99.43" from="289494710#2" to="-519323436#3"/>
    <trip id="132" depart="100.19" from="786182933#8" to="582793726#11"/>
    <trip id="133" depart="100.95" from="531431467#3" to="832517451#4"/>
    <trip id="134" depart="101.71" from="532529595#7" to="-1009909875#0"/>
    <trip id="135" depart="102.47" from="786182933#5" to="1069574888#2"/>
    <trip id="136" depart="103.23" from="582793726#10" to="832117945#1"/>
    <trip id="137" depart="103.99" from="-519323436#1" to="-519323434#3"/>
    <trip id="138" depart="104.75" from="-519323434#5" to="519323434#5"/>
    <trip id="139" depart="105.51" from="1069574888#0" to="519323439#0"/>
    <trip id="140" depart="106.27" from="582793726#8" to="-832117945#1"/>
    <trip id="141" depart="107.03" from="532529595#4" to="1015040650#4"/>
    <trip id="142" depart="107.78" from="519322359#6" to="830627880#2"/>
    <trip id="143" depart="108.54" from="786182933#9" to="-519322383#1"/>
    <trip id="144" depart="109.30" from="360560906#1" to="1069574886#1"/>
    <trip id="145" depart="110.06" from="-1009909875#0" to="607435003#1"/>
    <trip id="146" depart="110.82" from="532529595#4" to="1015040650#4"/>
    <trip id="147" depart="111.58" from="590053401#0" to="519323434#3"/>
    <trip id="148" depart="112.34" from="505097816#9" to="-231177199#5"/>
    <trip id="149" depart="113.10" from="-519322383#1" to="830620010#4"/>
    <trip id="150" depart="113.86" from="830627879#1" to="519323434#3"/>
    <trip id="151" depart="114.62" from="786182933#8" to="519323436#2"/>
    <trip id="152" depart="115.37" from="-519323436#2" to="-519323436#0"/>
    <trip id="153" depart="116.13" from="1089043911#2" to="830627880#1"/>
    <trip id="154" depart="116.89" from="641843738#6" to="830620010#2"/>
    <trip id="155" depart="117.65" from="830627879#1" to="1009909875#0"/>
    <trip id="156" depart="118.41" from="1015040650#5" to="-519323434#0"/>
    <trip id="157" depart="119.17" from="607435003#3" to="830620010#4"/>
    <trip id="158" depart="119.93" from="289494710#8" to="519323440#2"/>
    <trip id="159" depart="120.69" from="-519323436#3" to="831143066"/>
    <trip id="160" depart="121.45" from="830620010#0" to="832517451#3"/>
    <trip id="161" depart="122.21" from="786182933#3" to="830620010#4"/>
    <trip id="162" depart="122.97" from="-289494710#10" to="582793726#8"/>
    <trip id="163" depart="123.72" from="154261209#4" to="831143066"/>
    <trip id="164" depart="124.48" from="786182933#3" to="830620010#2"/>
    <trip id="165" depart="125.24" from="786182933#3" to="1015040650#5"/>
    <trip id="166" depart="126.00" from="641843738#4" to="-519323434#1"/>
    <trip id="167" depart="126.76" from="830620010#1" to="830620010#2"/>
    <trip id="168" depart="127.52" from="1015040650#2" to="786182933#8"/>
    <trip id="169" depart="128.28" from="519322359#3" to="1069574888#3"/>
    <trip id="170" depart="129.04" from="641843738#6" to="1009909875#2"/>
    <trip id="171" depart="129.80" from="-289494710#10" to="-641843738#6"/>
    <trip id="172" depart="130.56" from="1089043911#4" to="830620010#2"/>
    <trip id="173" depart="131.31" from="832517451#1" to="1069574886#1"/>
    <trip id="174" depart="132.07" from="532529595#4" to="289494710#10"/>
    <trip id="175" depart="132.83" from="832517451#3" to="519323434#1"/>
    <trip id="176" depart="133.59" from="831143066" to="-519323434#3"/>
    <trip id="177" depart="134.35" from="832517451#1" to="-519323440#0"/>
    <trip id="178" depart="135.11" from="832517451#1" to="1015040650#4"/>
    <trip id="179" depart="135.87" from="-519323434#5" to="289494710#8"/>
    <trip id="180" depart="136.63" from="582793749#1" to="1069574888#3"/>
    <trip id="181" depart="137.39" from="531431467#3" to="519322359#8"/>
    <trip id="182" depart="138.15" from="289494710#3" to="519323436#1"/>
    <trip id="183" depart="138.91" from="1069574886#1" to="582793726#5"/>
    <trip id="184" depart="139.66" from="-1009909875#0" to="831143066"/>
    <trip id="185" depart="140.42" from="519323434#1" to="582793726#6"/>
    <trip id="186" depart="141.18" from="590053401#0" to="532529595#6"/>
    <trip id="187" depart="141.94" from="284588841#2" to="-519322379#1"/>
    <trip id="188" depart="142.70" from="582793726#10" to="1089043911#2"/>
    <trip id="189" depart="143.46" from="1089043911#3" to="830620010#1"/>
    <trip id="190" depart="144.22" from="582793726#8" to="1069574888#2"/>
    <trip id="191" depart="144.98" from="1089043911#2" to="289494710#3"/>
    <trip id="192" depart="145.74" from="289494710#7" to="1069574888#2"/>
    <trip id="193" depart="146.50" from="-519323436#0" to="289494710#7"/>
    <trip id="194" depart="147.25" from="831143066" to="532529595#7"/>
    <trip id="195" depart="148.01" from="830627879#1" to="519323440#0"/>
    <trip id="196" depart="148.77" from="1089043911#0" to="519323434#3"/>
    <trip id="197" depart="149.53" from="-1009909875#0" to="1069574886#3"/>
    <trip id="198" depart="150.29" from="505097816#9" to="519323436#1"/>
    <trip id="199" depart="151.05" from="532529595#7" to="519322349#1"/>
    <trip id="200" depart="151.81" from="519322349#0" to="1009909875#0"/>
    <trip id="201" depart="152.57" from="519322359#5" to="830627880#1"/>
    <trip id="202" depart="153.33" from="641843738#6" to="-519323439#0"/>
    <trip id="203" depart="154.09" from="-519323434#0" to="519322383#1"/>
    <trip id="204" depart="154.84" from="532529595#4" to="1089043911#3"/>
    <trip id="205" depart="155.60" from="786182933#5" to="590053401#1"/>
    <trip id="206" depart="156.36" from="582793726#11" to="1009909875#2"/>
    <trip id="207" depart="157.12" from="-832117945#1" to="-289494710#2"/>
    <trip id="208" depart="157.88" from="1015040650#4" to="519322349#2"/>
    <trip id="209" depart="158.64" from="827278173#1" to="-519322379#1"/>
    <trip id="210" depart="159.40" from="289494710#8" to="531431467#3"/>
    <trip id="211" depart="160.16" from="-641843738#6" to="582793726#11"/>
    <trip id="212" depart="160.92" from="519322359#8" to="1015040650#2"/>
    <trip id="213" depart="161.68" from="532529595#7" to="-1009909875#0"/>
    <trip id="214" depart="162.44" from="590053401#1" to="607435003#1"/>
    <trip id="215" depart="163.19" from="-519323434#5" to="289494710#7"/>
    <trip id="216" depart="163.95" from="-519323440#0" to="832517451#1"/>
    <trip id="217" depart="164.71" from="519322383#0" to="-289494710#7"/>
    <trip id="218" depart="165.47" from="1015040650#5" to="830620010#1"/>
    <trip id="219" depart="166.23" from="519322359#3" to="786182933#6"/>
    <trip id="220" depart="166.99" from="582793726#10" to="832517451#4"/>
    <trip id="221" depart="167.75" from="519323440#0" to="832117945#2"/>
    <trip id="222" depart="168.51" from="830620010#3" to="519323440#0"/>
    <trip id="223" depart="169.27" from="582793726#8" to="519322359#8"/>
    <trip id="224" depart="170.03" from="786182933#8" to="519323434#3"/>
    <trip id="225" depart="170.78" from="830627879#1" to="590053401#1"/>
    <trip id="226" depart="171.54" from="519322359#5" to="1015040650#4"/>
    <trip id="227" depart="172.30" from="1015040650#5" to="531431467#3"/>
    <trip id="228" depart="173.06" from="607435003#1" to="519322383#1"/>
    <trip id="229" depart="173.82" from="531431467#6" to="1015040650#5"/>
    <trip id="230" depart="174.58" from="-519323434#0" to="1069574886#3"/>
    <trip id="231" depart="175.34" from="1069574888#0" to="1089043911#0"/>
    <trip id="232" depart="176.10" from="519323434#1" to="-519323436#1"/>
    <trip id="233" depart="176.86" from="1015040650#3" to="582793726#10"/>
    <trip id="234" depart="177.62" from="582793726#6" to="-289494710#8"/>
    <trip id="235" depart="178.38" from="289494710#8" to="519323434#1"/>
    <trip id="236" depart="179.13" from="360560906#1" to="-832117945#1"/>
    <trip id="237" depart="179.89" from="360560906#1" to="830627880#2"/>
    <trip id="238" depart="180.65" from="519323436#3" to="582793726#11"/>
    <trip id="239" depart="181.41" from="827278173#1" to="607435003#1"/>
    <trip id="240" depart="182.17" from="289494710#3" to="-1009909875#0"/>
    <trip id="241" depart="182.93" from="231177199#5" to="590053401#2"/>
    <trip id="242" depart="183.69" from="827278173#1" to="832517451#1"/>
    <trip id="243" depart="184.45" from="360560906#1" to="590053401#1"/>
    <trip id="244" depart="185.21" from="519323434#1" to="519323439#0"/>
    <trip id="245" depart="185.97" from="1015040650#2" to="1009909875#2"/>
    <trip id="246" depart="186.72" from="519322349#0" to="-289494710#3"/>
    <trip id="247" depart="187.48" from="154261209#4" to="532529595#7"/>
    <trip id="248" depart="188.24" from="289494710#7" to="-519323439#0"/>
    <trip id="249" depart="189.00" from="519322359#4" to="-519323436#0"/>
    <trip id="250" depart="189.76" from="531431467#5" to="-289494710#2"/>
    <trip id="251" depart="190.52" from="289494710#5" to="519323435#1"/>
    <trip id="252" depart="191.28" from="-289494710#10" to="531431467#5"/>
    <trip id="253" depart="192.04" from="-519323436#1" to="519322349#1"/>
    <trip id="254" depart="192.80" from="-289494710#7" to="154646651#3"/>
    <trip id="255" depart="193.56" from="1009909875#0" to="1089043911#2"/>
    <trip id="256" depart="194.32" from="590053401#2" to="154646651#3"/>
    <trip id="257" depart="195.07" from="590053401#1" to="827278173#1"/>
    <trip id="258" depart="195.83" from="1015040650#5" to="-519322383#0"/>
    <trip id="259" depart="196.59" from="-289494710#10" to="519323434#1"/>
    <trip id="260" depart="197.35" from="832517451#4" to="1089043911#4"/>
    <trip id="261" depart="198.11" from="532529595#6" to="641843738#6"/>
    <trip id="262" depart="198.87" from="532529595#7" to="590053401#2"/>
    <trip id="263" depart="199.63" from="832117945#1" to="-641843738#6"/>
    <trip id="264" depart="200.39" from="-289494710#10" to="-519323436#3"/>
    <trip id="265" depart="201.15" from="-519323436#0" to="532529595#6"/>
    <trip id="266" depart="201.91" from="519323436#1" to="1009909875#0"/>
    <trip id="267" depart="202.66" from="582793726#6" to="607435003#1"/>
    <trip id="268" depart="203.42" from="-519323439#0" to="519323439#0"/>
    <trip id="269" depart="204.18" from="590053401#1" to="-519323434#3"/>
    <trip id="270" depart="204.94" from="786182933#5" to="832517451#2"/>
    <trip id="271" depart="205.70" from="-519323434#5" to="-289494710#2"/>
    <trip id="272" depart="206.46" from="1089043911#3" to="532529595#7"/>
    <trip id="273" depart="207.22" from="832117945#2" to="289494710#10"/>
    <trip id="274" depart="207.98" from="582793726#7" to="-519322379#1"/>
    <trip id="275" depart="208.74" from="582793726#5" to="519323440#2"/>
    <trip id="276" depart="209.50" from="-519323434#3" to="607435003#3"/>
    <trip id="277" depart="210.26" from="827278173#1" to="519323439#0"/>
    <trip id="278" depart="211.01" from="-519323435#1" to="832517451#4"/>
    <trip id="279" depart="211.77" from="607435003#3" to="1089043911#4"/>
    <trip id="280" depart="212.53" from="505097816#9" to="154646651#1"/>
    <trip id="281" depart="213.29" from="519322379#1" to="1089043911#3"/>
    <trip id="282" depart="214.05" from="827278173#1" to="786182933#9"/>
    <trip id="283" depart="214.81" from="-519323434#5" to="832517451#1"/>
    <trip id="284" depart="215.57" from="532529595#4" to="827278173#1"/>
    <trip id="285" depart="216.33" from="582793726#6" to="289494710#8"/>
    <trip id="286" depart="217.09" from="582793749#1" to="832517451#2"/>
    <trip id="287" depart="217.85" from="1069574888#0" to="786182933#6"/>
    <trip id="288" depart="218.60" from="519323434#1" to="519322359#4"/>
    <trip id="289" depart="219.36" from="519322349#0" to="582793726#7"/>
    <trip id="290" depart="220.12" from="1069574888#0" to="830620010#1"/>
    <trip id="291" depart="220.88" from="786182933#8" to="-519322383#1"/>
    <trip id="292" depart="221.64" from="830620010#2" to="1015040650#2"/>
    <trip id="293" depart="222.40" from="519322359#4" to="519323440#0"/>
    <trip id="294" depart="223.16" from="289494710#3" to="-289494710#3"/>
    <trip id="295" depart="223.92" from="827278173#1" to="-641843738#4"/>
    <trip id="296" depart="224.68" from="1009909875#0" to="786182933#5"/>
    <trip id="297" depart="225.44" from="154646651#1" to="830620010#4"/>
    <trip id="298" depart="226.20" from="582793726#6" to="1069574886#1"/>
    <trip id="299" depart="226.95" from="-1009909875#2" to="832117945#2"/>
    <trip id="300" depart="227.71" from="-519323434#1" to="582793726#6"/>
    <trip id="301" depart="228.47" from="519322359#6" to="590053401#2"/>
    <trip id="302" depart="229.23" from="582793726#5" to="531431467#5"/>
    <trip id="303" depart="229.99" from="519322359#8" to="786182933#5"/>
    <trip id="304" depart="230.75" from="-519323434#1" to="1009909875#2"/>
    <trip id="305" depart="231.51" from="582793726#5" to="1069574888#3"/>
    <trip id="306" depart="232.27" from="519323436#3" to="519322349#2"/>
    <trip id="307" depart="233.03" from="519323434#0" to="289494710#7"/>
    <trip id="308" depart="233.79" from="590053401#1" to="1089043911#2"/>
    <trip id="309" depart="234.54" from="582793726#6" to="1015040650#5"/>
    <trip id="310" depart="235.30" from="1015040650#5" to="-519323434#3"/>
    <trip id="311" depart="236.06" from="-641843738#6" to="-519323434#3"/>
    <trip id="312" depart="236.82" from="519323434#0" to="607435003#1"/>
    <trip id="313" depart="237.58" from="-519323440#2" to="1009909875#0"/>
    <trip id="314" depart="238.34" from="519322359#6" to="582793726#7"/>
    <trip id="315" depart="239.10" from="832517451#2" to="519323434#0"/>
    <trip id="316" depart="239.86" from="1069574888#2" to="-519323434#0"/>
    <trip id="317" depart="240.62" from="-641843738#6" to="1009909875#2"/>
    <trip id="318" depart="241.38" from="-519323440#2" to="-231177199#5"/>
    <trip id="319" depart="242.14" from="519323434#0" to="1015040650#5"/>
    <trip id="320" depart="242.89" from="832517451#2" to="519323434#5"/>
    <trip id="321" depart="243.65" from="582793726#5" to="-519323436#0"/>
    <trip id="322" depart="244.41" from="830620010#1" to="519322359#5"/>
    <trip id="323" depart="245.17" from="830620010#1" to="519323436#1"/>
    <trip id="324" depart="245.93" from="519322359#4" to="360560906#1"/>
    <trip id="325" depart="246.69" from="-519323440#2" to="-289494710#7"/>
    <trip id="326" depart="247.45" from="831143066" to="519322359#4"/>
    <trip id="327" depart="248.21" from="786182933#6" to="289494710#3"/>
    <trip id="328" depart="248.97" from="-519322383#1" to="531431467#3"/>
    <trip id="329" depart="249.73" from="-289494710#7" to="-519323436#2"/>
    <trip id="330" depart="250.48" from="519323436#1" to="1069574888#2"/>
    <trip id="331" depart="251.24" from="832517451#4" to="-519323434#3"/>
    <trip id="332" depart="252.00" from="607435003#1" to="519323439#0"/>
    <trip id="333" depart="252.76" from="641843738#4" to="1009909875#2"/>
    <trip id="334" depart="253.52" from="519322383#1" to="519322349#0"/>
    <trip id="335" depart="254.28" from="519322349#0" to="830620010#2"/>
    <trip id="336" depart="255.04" from="832517451#3" to="1069574888#3"/>
    <trip id="337" depart="255.80" from="531431467#5" to="519323440#0"/>
    <trip id="338" depart="256.56" from="590053401#0" to="832117945#2"/>
    <trip id="339" depart="257.32" from="1009909875#0" to="1009909875#0"/>
    <trip id="340" depart="258.07" from="582793726#10" to="-519323436#3"/>
    <trip id="341" depart="258.83" from="-519323440#0" to="-519322379#1"/>
    <trip id="342" depart="259.59" from="-1009909875#0" to="519322349#0"/>
    <trip id="343" depart="260.35" from="519323439#0" to="1069574886#3"/>
    <trip id="344" depart="261.11" from="1015040650#3" to="582793726#5"/>
    <trip id="345" depart="261.87" from="582793726#6" to="519322349#0"/>
    <trip id="346" depart="262.63" from="582793726#4" to="831143066"/>
    <trip id="347" depart="263.39" from="641843738#4" to="519323440#2"/>
    <trip id="348" depart="264.15" from="582793726#10" to="832117945#1"/>
    <trip id="349" depart="264.91" from="505097816#9" to="519323434#3"/>
    <trip id="350" depart="265.67" from="532529595#6" to="830627880#2"/>
    <trip id="351" depart="266.42" from="786182933#6" to="-519322379#1"/>
    <trip id="352" depart="267.18" from="-519323439#0" to="1069574888#3"/>
    <trip id="353" depart="267.94" from="590053401#1" to="519323435#1"/>
    <trip id="354" depart="268.70" from="1069574888#3" to="-519323436#0"/>
    <trip id="355" depart="269.46" from="582793726#4" to="582793726#11"/>
    <trip id="356" depart="270.22" from="831143066" to="519322359#6"/>
    <trip id="357" depart="270.98" from="519322359#8" to="-519322383#0"/>
    <trip id="358" depart="271.74" from="-289494710#5" to="289494710#8"/>
    <trip id="359" depart="272.50" from="1089043911#4" to="1015040650#3"/>
    <trip id="360" depart="273.26" from="-519323434#1" to="832517451#2"/>
    <trip id="361" depart="274.01" from="786182933#8" to="519323436#1"/>
    <trip id="362" depart="274.77" from="832117945#1" to="832517451#6"/>
    <trip id="363" depart="275.53" from="582793726#11" to="1015040650#5"/>
    <trip id="364" depart="276.29" from="-289494710#5" to="590053401#2"/>
    <trip id="365" depart="277.05" from="519322359#4" to="531431467#6"/>
    <trip id="366" depart="277.81" from="830627880#2" to="-641843738#4"/>
    <trip id="367" depart="278.57" from="519323439#0" to="531431467#3"/>
    <trip id="368" depart="279.33" from="519322359#8" to="-519322383#1"/>
    <trip id="369" depart="280.09" from="154646651#1" to="1089043911#2"/>
    <trip id="370" depart="280.85" from="582793726#11" to="830620010#2"/>
    <trip id="371" depart="281.61" from="1089043911#4" to="582793726#10"/>
    <trip id="372" depart="282.36" from="1069574888#3" to="832117945#2"/>
    <trip id="373" depart="283.12" from="786182933#5" to="519323434#3"/>
    <trip id="374" depart="283.88" from="519322359#3" to="1089043911#0"/>
    <trip id="375" depart="284.64" from="1089043911#4" to="832517451#2"/>
    <trip id="376" depart="285.40" from="289494710#7" to="519322383#1"/>
    <trip id="377" depart="286.16" from="832517451#3" to="531431467#8"/>
    <trip id="378" depart="286.92" from="519323434#1" to="289494710#5"/>
    <trip id="379" depart="287.68" from="-519323440#2" to="1089043911#5"/>
    <trip id="380" depart="288.44" from="590053401#2" to="519323440#2"/>
    <trip id="381" depart="289.20" from="590053401#2" to="-832117945#1"/>
    <trip id="382" depart="289.95" from="519323434#3" to="831143066"/>
    <trip id="383" depart="290.71" from="519322349#0" to="582793726#11"/>
    <trip id="384" depart="291.47" from="-519323435#1" to="832517451#3"/>
    <trip id="385" depart="292.23" from="531431467#3" to="1015040650#2"/>
    <trip id="386" depart="292.99" from="-519323436#3" to="519323434#3"/>
    <trip id="387" depart="293.75" from="519323434#3" to="-519322383#1"/>
    <trip id="388" depart="294.51" from="832517451#4" to="830627880#2"/>
    <trip id="389" depart="295.27" from="519322359#3" to="-519323434#3"/>
    <trip id="390" depart="296.03" from="786182933#8" to="519322359#6"/>
    <trip id="391" depart="296.79" from="582793726#7" to="519322359#8"/>
    <trip id="392" depart="297.55" from="1069574888#0" to="827278173#1"/>
    <trip id="393" depart="298.30" from="832517451#2" to="1015040650#2"/>
    <trip id="394" depart="299.06" from="519323434#3" to="284588841#2"/>
    <trip id="395" depart="299.82" from="830627880#2" to="519322359#8"/>
    <trip id="396" depart="300.58" from="830620010#2" to="830620010#2"/>
    <trip id="397" depart="301.34" from="1069574888#2" to="641843738#6"/>
    <trip id="398" depart="302.10" from="289494710#8" to="832117945#1"/>
    <trip id="399" depart="302.86" from="519322379#1" to="786182933#9"/>
    <trip id="400" depart="303.62" from="1069574888#2" to="1069574888#2"/>
    <trip id="401" depart="304.38" from="519323439#0" to="832517451#6"/>
    <trip id="402" depart="305.14" from="519322359#6" to="-519323436#2"/>
    <trip id="403" depart="305.89" from="519323434#1" to="1089043911#4"/>