<?xml version="1.0" encoding="UTF-8"?>

<!-- generated on 2022-10-23 20:37:52.723841 by randomTrips.py v1_14_0+0002-ebd7f0b131e
<configuration>
    <end value="3600"/>
    <insertion-density value="80.0"/>
    <net-file value="xiaoshan.net.xml"/>
    <output-trip-file value="xiaoshan3.trips.xml"/>
</configuration>
-->

<routes xmlns:xsi="http://www.w3.org/2001/XMLSchema-instance" xsi:noNamespaceSchemaLocation="http://sumo.dlr.de/xsd/routes_file.xsd">
    <trip id="0" depart="0.00" from="532529595#4" to="-289494710#2"/>
    <trip id="1" depart="1.14" from="1069574888#2" to="1009909875#2"/>
    <trip id="2" depart="2.28" from="590053401#0" to="532529595#7"/>
    <trip id="3" depart="3.42" from="830620010#3" to="-519322383#1"/>
    <trip id="4" depart="4.55" from="360560906#1" to="-289494710#3"/>
    <trip id="5" depart="5.69" from="1015040650#2" to="519322359#8"/>
    <trip id="6" depart="6.83" from="-289494710#10" to="-641843738#6"/>
    <trip id="7" depart="7.97" from="532529595#6" to="519323434#3"/>
    <trip id="8" depart="9.11" from="1015040650#2" to="519323436#2"/>
    <trip id="9" depart="10.25" from="786182933#3" to="-1009909875#0"/>
    <trip id="10" depart="11.39" from="786182933#3" to="582793726#11"/>
    <trip id="11" depart="12.52" from="154646651#1" to="-519323436#3"/>
    <trip id="12" depart="13.66" from="832117945#2" to="1089043911#3"/>
    <trip id="13" depart="14.80" from="-519323434#1" to="-519323434#0"/>
    <trip id="14" depart="15.94" from="786182933#9" to="519323439#0"/>
    <trip id="15" depart="17.08" from="786182933#3" to="582793726#7"/>
    <trip id="16" depart="18.22" from="519323434#0" to="832517451#3"/>
    <trip id="17" depart="19.36" from="289494710#3" to="519323434#3"/>
    <trip id="18" depart="20.49" from="786182933#6" to="519323440#0"/>
    <trip id="19" depart="21.63" from="830620010#0" to="519323436#1"/>
    <trip id="20" depart="22.77" from="582793726#6" to="-289494710#5"/>
    <trip id="21" depart="23.91" from="1015040650#3" to="1069574886#3"/>
    <trip id="22" depart="25.05" from="-519323434#0" to="1015040609#1"/>
    <trip id="23" depart="26.19" from="-519323434#3" to="1069574886#1"/>
    <trip id="24" depart="27.33" from="532529595#4" to="154646651#1"/>
    <trip id="25" depart="28.46" from="289494710#2" to="-832117945#1"/>
    <trip id="26" depart="29.60" from="1069574888#0" to="832117945#1"/>
    <trip id="27" depart="30.74" from="532529595#6" to="519323439#0"/>
    <trip id="28" depart="31.88" from="-519323440#0" to="582793726#7"/>
    <trip id="29" depart="33.02" from="-519323439#0" to="154646651#3"/>
    <trip id="30" depart="34.16" from="832517451#3" to="531431467#5"/>
    <trip id="31" depart="35.30" from="519323436#1" to="532529595#7"/>
    <trip id="32" depart="36.43" from="786182933#9" to="607435003#3"/>
    <trip id="33" depart="37.57" from="1015040650#3" to="-289494710#3"/>
    <trip id="34" depart="38.71" from="1089043911#3" to="1015040650#5"/>
    <trip id="35" depart="39.85" from="1009909875#0" to="832117945#2"/>
    <trip id="36" depart="40.99" from="830620010#1" to="1089043911#0"/>
    <trip id="37" depart="42.13" from="532529595#7" to="289494710#10"/>
    <trip id="38" depart="43.27" from="830627880#1" to="519322349#1"/>
    <trip id="39" depart="44.40" from="1069574888#0" to="1015040650#2"/>
    <trip id="40" depart="45.54" from="519323436#1" to="1015040650#4"/>
    <trip id="41" depart="46.68" from="519323436#3" to="830627880#1"/>
    <trip id="42" depart="47.82" from="289494710#7" to="1009909875#2"/>
    <trip id="43" depart="48.96" from="832517451#4" to="519322359#8"/>
    <trip id="44" depart="50.10" from="-519323434#1" to="-289494710#5"/>
    <trip id="45" depart="51.24" from="-519323434#5" to="519323440#2"/>
    <trip id="46" depart="52.37" from="641843738#4" to="289494710#7"/>
    <trip id="47" depart="53.51" from="-289494710#8" to="284588841#2"/>
    <trip id="48" depart="54.65" from="832517451#4" to="519323434#0"/>
    <trip id="49" depart="55.79" from="832517451#1" to="830620010#2"/>
    <trip id="50" depart="56.93" from="-1009909875#2" to="582793726#6"/>
    <trip id="51" depart="58.07" from="582793726#4" to="519323434#1"/>
    <trip id="52" depart="59.21" from="1069574888#0" to="531431467#5"/>
    <trip id="53" depart="60.34" from="-519323434#5" to="289494710#8"/>
    <trip id="54" depart="61.48" from="519322359#3" to="832517451#1"/>
    <trip id="55" depart="62.62" from="830620010#1" to="1015040650#4"/>
    <trip id="56" depart="63.76" from="519322379#1" to="-519323440#0"/>
    <trip id="57" depart="64.90" from="830627880#1" to="830620010#3"/>
    <trip id="58" depart="66.04" from="1089043911#0" to="531431467#5"/>
    <trip id="59" depart="67.18" from="531431467#3" to="-519323436#3"/>
    <trip id="60" depart="68.31" from="590053401#2" to="519323434#1"/>
    <trip id="61" depart="69.45" from="607435003#3" to="519323434#0"/>
    <trip id="62" depart="70.59" from="-1009909875#0" to="1089043911#2"/>
    <trip id="63" depart="71.73" from="-289494710#10" to="831143066"/>
    <trip id="64" depart="72.87" from="830620010#2" to="827278173#1"/>
    <trip id="65" depart="74.01" from="1089043911#2" to="-289494710#8"/>
    <trip id="66" depart="75.15" from="830620010#2" to="832117945#2"/>
    <trip id="67" depart="76.28" from="-519323434#1" to="519322359#5"/>
    <trip id="68" depart="77.42" from="-519322383#1" to="590053401#2"/>
    <trip id="69" depart="78.56" from="607435003#1" to="-519323436#0"/>
    <trip id="70" depart="79.70" from="519322359#5" to="519323434#3"/>
    <trip id="71" depart="80.84" from="1069574888#0" to="830620010#3"/>
    <trip id="72" depart="81.98" from="360560906#1" to="1009909875#0"/>
    <trip id="73" depart="83.12" from="519323434#1" to="582793726#7"/>
    <trip id="74" depart="84.25" from="-832117945#1" to="1069574888#3"/>
    <trip id="75" depart="85.39" from="832517451#4" to="531431467#6"/>
    <trip id="76" depart="86.53" from="519322349#0" to="519322383#1"/>
    <trip id="77" depart="87.67" from="-519323435#1" to="1009909875#2"/>
    <trip id="78" depart="88.81" from="154261209#4" to="519323436#2"/>
    <trip id="79" depart="89.95" from="1015040650#3" to="1009909875#2"/>
    <trip id="80" depart="91.09" from="-519322383#1" to="531431467#3"/>
    <trip id="81" depart="92.22" from="1015040650#3" to="830627880#2"/>
    <trip id="82" depart="93.36" from="830620010#0" to="-519322379#1"/>
    <trip id="83" depart="94.50" from="1015040650#4" to="532529595#6"/>
    <trip id="84" depart="95.64" from="1009909875#0" to="-519323436#0"/>
    <trip id="85" depart="96.78" from="831143066" to="519323435#1"/>
    <trip id="86" depart="97.92" from="519322359#5" to="641843738#6"/>
    <trip id="87" depart="99.06" from="786182933#3" to="-641843738#4"/>
    <trip id="88" depart="100.19" from="-519323434#3" to="289494710#8"/>
    <trip id="89" depart="101.33" from="360560906#1" to="519322349#2"/>
    <trip id="90" depart="102.47" from="582793749#1" to="532529595#6"/>
    <trip id="91" depart="103.61" from="832517451#3" to="-519323434#0"/>
    <trip id="92" depart="104.75" from="289494710#7" to="1089043911#3"/>
    <trip id="93" depart="105.89" from="830620010#0" to="1015040650#3"/>
    <trip id="94" depart="107.03" from="-641843738#6" to="519322349#0"/>
    <trip id="95" depart="108.16" from="360560906#1" to="1069574886#1"/>
    <trip id="96" depart="109.30" from="1015040650#5" to="830627880#3"/>
    <trip id="97" depart="110.44" from="519322349#0" to="830620010#2"/>
    <trip id="98" depart="111.58" from="519323434#3" to="-289494710#7"/>
    <trip id="99" depart="112.72" from="832517451#4" to="827278173#1"/>
    <trip id="100" depart="113.86" from="832517451#1" to="831143066"/>
    <trip id="101" depart="115.00" from="786182933#9" to="-519323439#0"/>
    <trip id="102" depart="116.13" from="519322359#6" to="1009909875#0"/>
    <trip id="103" depart="117.27" from="289494710#7" to="-289494710#8"/>
    <trip id="104" depart="118.41" from="289494710#3" to="832517451#4"/>
    <trip id="105" depart="119.55" from="1069574888#0" to="641843738#6"/>
    <trip id="106" depart="120.69" from="519322359#3" to="289494710#7"/>
    <trip id="107" depart="121.83" from="832117945#2" to="832517451#6"/>
    <trip id="108" depart="122.97" from="519323434#3" to="582793726#6"/>
    <trip id="109" depart="124.10" from="-519323436#3" to="1069574888#2"/>
    <trip id="110" depart="125.24" from="832517451#1" to="519323436#1"/>
    <trip id="111" depart="126.38" from="519323434#1" to="590053401#1"/>
    <trip id="112" depart="127.52" from="-289494710#8" to="519323436#2"/>
    <trip id="113" depart="128.66" from="519322379#1" to="830620010#1"/>
    <trip id="114" depart="129.80" from="-519323436#3" to="832517451#1"/>
    <trip id="115" depart="130.94" from="-519323434#0" to="-641843738#4"/>
    <trip id="116" depart="132.07" from="519323440#0" to="532529595#6"/>
    <trip id="117" depart="133.21" from="1015040650#3" to="-519323434#3"/>
    <trip id="118" depart="134.35" from="830620010#3" to="1015040650#2"/>
    <trip id="119" depart="135.49" from="519323440#0" to="519323440#2"/>
    <trip id="120" depart="136.63" from="360560906#1" to="519323436#2"/>
    <trip id="121" depart="137.77" from="519322383#1" to="832117945#1"/>
    <trip id="122" depart="138.91" from="-832117945#1" to="582793726#6"/>
    <trip id="123" depart="140.04" from="1015040650#4" to="289494710#10"/>
    <trip id="124" depart="141.18" from="582793726#11" to="1069574888#2"/>
    <trip id="125" depart="142.32" from="1089043911#3" to="590053401#1"/>
    <trip id="126" depart="143.46" from="-519322383#1" to="519322349#1"/>
    <trip id="127" depart="144.60" from="832517451#4" to="832517451#6"/>
    <trip id="128" depart="145.74" from="-519322383#1" to="1009909875#0"/>
    <trip id="129" depart="146.88" from="1069574888#0" to="831143066"/>
    <trip id="130" depart="148.01" from="830620010#2" to="830620010#4"/>
    <trip id="131" depart="149.15" from="289494710#2" to="-519323436#3"/>
    <trip id="132" depart="150.29" from="786182933#8" to="582793726#11"/>
    <trip id="133" depart="151.43" from="531431467#3" to="832517451#4"/>
    <trip id="134" depart="152.57" from="532529595#7" to="-1009909875#0"/>
    <trip id="135" depart="153.71" from="786182933#5" to="1069574888#2"/>
    <trip id="136" depart="154.84" from="582793726#10" to="832117945#1"/>
    <trip id="137" depart="155.98" from="-519323436#1" to="-519323434#3"/>
    <trip id="138" depart="157.12" from="-519323434#5" to="519323434#5"/>
    <trip id="139" depart="158.26" from="1069574888#0" to="519323439#0"/>
    <trip id="140" depart="159.40" from="582793726#8" to="-832117945#1"/>
    <trip id="141" depart="160.54" from="532529595#4" to="1015040650#4"/>
    <trip id="142" depart="161.68" from="519322359#6" to="830627880#2"/>
    <trip id="143" depart="162.81" from="786182933#9" to="-519322383#1"/>
    <trip id="144" depart="163.95" from="360560906#1" to="1069574886#1"/>
    <trip id="145" depart="165.09" from="-1009909875#0" to="607435003#1"/>
    <trip id="146" depart="166.23" from="532529595#4" to="1015040650#4"/>
    <trip id="147" depart="167.37" from="590053401#0" to="519323434#3"/>
    <trip id="148" depart="168.51" from="505097816#9" to="-231177199#5"/>
    <trip id="149" depart="169.65" from="-519322383#1" to="830620010#4"/>
    <trip id="150" depart="170.78" from="830627879#1" to="519323434#3"/>
    <trip id="151" depart="171.92" from="786182933#8" to="519323436#2"/>
    <trip id="152" depart="173.06" from="-519323436#2" to="-519323436#0"/>
    <trip id="153" depart="174.20" from="1089043911#2" to="830627880#1"/>
    <trip id="154" depart="175.34" from="641843738#6" to="830620010#2"/>
    <trip id="155" depart="176.48" from="830627879#1" to="1009909875#0"/>
    <trip id="156" depart="177.62" from="1015040650#5" to="-519323434#0"/>
    <trip id="157" depart="178.75" from="607435003#3" to="830620010#4"/>
    <trip id="158" depart="179.89" from="289494710#8" to="519323440#2"/>
    <trip id="159" depart="181.03" from="-519323436#3" to="831143066"/>
    <trip id="160" depart="182.17" from="830620010#0" to="832517451#3"/>
    <trip id="161" depart="183.31" from="786182933#3" to="830620010#4"/>
    <trip id="162" depart="184.45" from="-289494710#10" to="582793726#8"/>
    <trip id="163" depart="185.59" from="154261209#4" to="831143066"/>
    <trip id="164" depart="186.72" from="786182933#3" to="830620010#2"/>
    <trip id="165" depart="187.86" from="786182933#3" to="1015040650#5"/>
    <trip id="166" depart="189.00" from="641843738#4" to="-519323434#1"/>
    <trip id="167" depart="190.14" from="830620010#1" to="830620010#2"/>
    <trip id="168" depart="191.28" from="1015040650#2" to="786182933#8"/>
    <trip id="169" depart="192.42" from="519322359#3" to="1069574888#3"/>
    <trip id="170" depart="193.56" from="641843738#6" to="1009909875#2"/>
    <trip id="171" depart="194.69" from="-289494710#10" to="-641843738#6"/>
    <trip id="172" depart="195.83" from="1089043911#4" to="830620010#2"/>
    <trip id="173" depart="196.97" from="832517451#1" to="1069574886#1"/>
    <trip id="174" depart="198.11" from="532529595#4" to="289494710#10"/>
    <trip id="175" depart="199.25" from="832517451#3" to="519323434#1"/>
    <trip id="176" depart="200.39" from="831143066" to="-519323434#3"/>
    <trip id="177" depart="201.53" from="832517451#1" to="-519323440#0"/>
    <trip id="178" depart="202.66" from="832517451#1" to="1015040650#4"/>
    <trip id="179" depart="203.80" from="-519323434#5" to="289494710#8"/>
    <trip id="180" depart="204.94" from="582793749#1" to="1069574888#3"/>
    <trip id="181" depart="206.08" from="531431467#3" to="519322359#8"/>
    <trip id="182" depart="207.22" from="289494710#3" to="519323436#1"/>
    <trip id="183" depart="208.36" from="1069574886#1" to="582793726#5"/>
    <trip id="184" depart="209.50" from="-1009909875#0" to="831143066"/>
    <trip id="185" depart="210.63" from="519323434#1" to="582793726#6"/>
    <trip id="186" depart="211.77" from="590053401#0" to="532529595#6"/>
    <trip id="187" depart="212.91" from="284588841#2" to="-519322379#1"/>
    <trip id="188" depart="214.05" from="582793726#10" to="1089043911#2"/>
    <trip id="189" depart="215.19" from="1089043911#3" to="830620010#1"/>
    <trip id="190" depart="216.33" from="582793726#8" to="1069574888#2"/>
    <trip id="191" depart="217.47" from="1089043911#2" to="289494710#3"/>
    <trip id="192" depart="218.60" from="289494710#7" to="1069574888#2"/>
    <trip id="193" depart="219.74" from="-519323436#0" to="289494710#7"/>
    <trip id="194" depart="220.88" from="831143066" to="532529595#7"/>
    <trip id="195" depart="222.02" from="830627879#1" to="519323440#0"/>
    <trip id="196" depart="223.16" from="1089043911#0" to="519323434#3"/>
    <trip id="197" depart="224.30" from="-1009909875#0" to="1069574886#3"/>
    <trip id="198" depart="225.44" from="505097816#9" to="519323436#1"/>
    <trip id="199" depart="226.57" from="532529595#7" to="519322349#1"/>
    <trip id="200" depart="227.71" from="519322349#0" to="1009909875#0"/>
    <trip id="201" depart="228.85" from="519322359#5" to="830627880#1"/>
    <trip id="202" depart="229.99" from="641843738#6" to="-519323439#0"/>
    <trip id="203" depart="231.13" from="-519323434#0" to="519322383#1"/>
    <trip id="204" depart="232.27" from="532529595#4" to="1089043911#3"/>
    <trip id="205" depart="233.41" from="786182933#5" to="590053401#1"/>
    <trip id="206" depart="234.54" from="582793726#11" to="1009909875#2"/>
    <trip id="207" depart="235.68" from="-832117945#1" to="-289494710#2"/>
    <trip id="208" depart="236.82" from="1015040650#4" to="519322349#2"/>
    <trip id="209" depart="237.96" from="827278173#1" to="-519322379#1"/>
    <trip id="210" depart="239.10" from="289494710#8" to="531431467#3"/>
    <trip id="211" depart="240.24" from="-641843738#6" to="582793726#11"/>
    <trip id="212" depart="241.38" from="519322359#8" to="1015040650#2"/>
    <trip id="213" depart="242.51" from="532529595#7" to="-1009909875#0"/>
    <trip id="214" depart="243.65" from="590053401#1" to="607435003#1"/>
    <trip id="215" depart="244.79" from="-519323434#5" to="289494710#7"/>
    <trip id="216" depart="245.93" from="-519323440#0" to="832517451#1"/>
    <trip id="217" depart="247.07" from="519322383#0" to="-289494710#7"/>
    <trip id="218" depart="248.21" from="1015040650#5" to="830620010#1"/>
    <trip id="219" depart="249.35" from="519322359#3" to="786182933#6"/>
    <trip id="220" depart="250.48" from="582793726#10" to="832517451#4"/>
    <trip id="221" depart="251.62" from="519323440#0" to="832117945#2"/>
    <trip id="222" depart="252.76" from="830620010#3" to="519323440#0"/>
    <trip id="223" depart="253.90" from="582793726#8" to="519322359#8"/>
    <trip id="224" depart="255.04" from="786182933#8" to="519323434#3"/>
    <trip id="225" depart="256.18" from="830627879#1" to="590053401#1"/>
    <trip id="226" depart="257.32" from="519322359#5" to="1015040650#4"/>
    <trip id="227" depart="258.45" from="1015040650#5" to="531431467#3"/>
    <trip id="228" depart="259.59" from="607435003#1" to="519322383#1"/>
    <trip id="229" depart="260.73" from="531431467#6" to="1015040650#5"/>
    <trip id="230" depart="261.87" from="-519323434#0" to="1069574886#3"/>
    <trip id="231" depart="263.01" from="1069574888#0" to="1089043911#0"/>
    <trip id="232" depart="264.15" from="519323434#1" to="-519323436#1"/>
    <trip id="233" depart="265.29" from="1015040650#3" to="582793726#10"/>
    <trip id="234" depart="266.42" from="582793726#6" to="-289494710#8"/>
    <trip id="235" depart="267.56" from="289494710#8" to="519323434#1"/>
    <trip id="236" depart="268.70" from="360560906#1" to="-832117945#1"/>
    <trip id="237" depart="269.84" from="360560906#1" to="830627880#2"/>
    <trip id="238" depart="270.98" from="519323436#3" to="582793726#11"/>
    <trip id="239" depart="272.12" from="827278173#1" to="607435003#1"/>
    <trip id="240" depart="273.26" from="289494710#3" to="-1009909875#0"/>
    <trip id="241" depart="274.39" from="231177199#5" to="590053401#2"/>
    <trip id="242" depart="275.53" from="827278173#1" to="832517451#1"/>
    <trip id="243" depart="276.67" from="360560906#1" to="590053401#1"/>
    <trip id="244" depart="277.81" from="519323434#1" to="519323439#0"/>
    <trip id="245" depart="278.95" from="1015040650#2" to="1009909875#2"/>
    <trip id="246" depart="280.09" from="519322349#0" to="-289494710#3"/>
    <trip id="247" depart="281.23" from="154261209#4" to="532529595#7"/>
    <trip id="248" depart="282.36" from="289494710#7" to="-519323439#0"/>
    <trip id="249" depart="283.50" from="519322359#4" to="-519323436#0"/>
    <trip id="250" depart="284.64" from="531431467#5" to="-289494710#2"/>
    <trip id="251" depart="285.78" from="289494710#5" to="519323435#1"/>
    <trip id="252" depart="286.92" from="-289494710#10" to="531431467#5"/>
    <trip id="253" depart="288.06" from="-519323436#1" to="519322349#1"/>
    <trip id="254" depart="289.20" from="-289494710#7" to="154646651#3"/>
    <trip id="255" depart="290.33" from="1009909875#0" to="1089043911#2"/>
    <trip id="256" depart="291.47" from="590053401#2" to="154646651#3"/>
    <trip id="257" depart="292.61" from="590053401#1" to="827278173#1"/>
    <trip id="258" depart="293.75" from="1015040650#5" to="-519322383#0"/>
    <trip id="259" depart="294.89" from="-289494710#10" to="519323434#1"/>
    <trip id="260" depart="296.03" from="832517451#4" to="1089043911#4"/>
    <trip id="261" depart="297.17" from="532529595#6" to="641843738#6"/>
    <trip id="262" depart="298.30" from="532529595#7" to="590053401#2"/>
    <trip id="263" depart="299.44" from="832117945#1" to="-641843738#6"/>
    <trip id="264" depart="300.58" from="-289494710#10" to="-519323436#3"/>
    <trip id="265" depart="301.72" from="-519323436#0" to="532529595#6"/>
    <trip id="266" depart="302.86" from="519323436#1" to="1009909875#0"/>
    <trip id="267" depart="304.00" from="582793726#6" to="607435003#1"/>
    <trip id="268" depart="305.14" from="-519323439#0" to="519323439#0"/>
    <trip id="269" depart="306.27" from="590053401#1" to="-519323434#3"/>
    <trip id="270" depart="307.41" from="786182933#5" to="832517451#2"/>
    <trip id="271" depart="308.55" from="-519323434#5" to="-289494710#2"/>
    <trip id="272" depart="309.69" from="1089043911#3" to="532529595#7"/>
    <trip id="273" depart="310.83" from="832117945#2" to="289494710#10"/>
    <trip id="274" depart="311.97" from="582793726#7" to="-519322379#1"/>
    <trip id="275" depart="313.11" from="582793726#5" to="519323440#2"/>
    <trip id="276" depart="314.24" from="-519323434#3" to="607435003#3"/>
    <trip id="277" depart="315.38" from="827278173#1" to="519323439#0"/>
    <trip id="278" depart="316.52" from="-519323435#1" to="832517451#4"/>
    <trip id="279" depart="317.66" from="607435003#3" to="1089043911#4"/>
    <trip id="280" depart="318.80" from="505097816#9" to="154646651#1"/>
    <trip id="281" depart="319.94" from="519322379#1" to="1089043911#3"/>
    <trip id="282" depart="321.08" from="827278173#1" to="786182933#9"/>
    <trip id="283" depart="322.21" from="-519323434#5" to="832517451#1"/>
    <trip id="284" depart="323.35" from="532529595#4" to="827278173#1"/>
    <trip id="285" depart="324.49" from="582793726#6" to="289494710#8"/>
    <trip id="286" depart="325.63" from="582793749#1" to="832517451#2"/>
    <trip id="287" depart="326.77" from="1069574888#0" to="786182933#6"/>
    <trip id="288" depart="327.91" from="519323434#1" to="519322359#4"/>
    <trip id="289" depart="329.05" from="519322349#0" to="582793726#7"/>
    <trip id="290" depart="330.18" from="1069574888#0" to="830620010#1"/>
    <trip id="291" depart="331.32" from="786182933#8" to="-519322383#1"/>
    <trip id="292" depart="332.46" from="830620010#2" to="1015040650#2"/>
    <trip id="293" depart="333.60" from="519322359#4" to="519323440#0"/>
    <trip id="294" depart="334.74" from="289494710#3" to="-289494710#3"/>
    <trip id="295" depart="335.88" from="827278173#1" to="-641843738#4"/>
    <trip id="296" depart="337.02" from="1009909875#0" to="786182933#5"/>
    <trip id="297" depart="338.15" from="154646651#1" to="830620010#4"/>
    <trip id="298" depart="339.29" from="582793726#6" to="1069574886#1"/>
    <trip id="299" depart="340.43" from="-1009909875#2" to="832117945#2"/>
    <trip id="300" depart="341.57" from="-519323434#1" to="582793726#6"/>
    <trip id="301" depart="342.71" from="519322359#6" to="590053401#2"/>
    <trip id="302" depart="343.85" from="582793726#5" to="531431467#5"/>
    <trip id="303" depart="344.99" from="519322359#8" to="786182933#5"/>
    <trip id="304" depart="346.12" from="-519323434#1" to="1009909875#2"/>
    <trip id="305" depart="347.26" from="582793726#5" to="1069574888#3"/>
    <trip id="306" depart="348.40" from="519323436#3" to="519322349#2"/>
    <trip id="307" depart="349.54" from="519323434#0" to="289494710#7"/>
    <trip id="308" depart="350.68" from="590053401#1" to="1089043911#2"/>
    <trip id="309" depart="351.82" from="582793726#6" to="1015040650#5"/>
    <trip id="310" depart="352.96" from="1015040650#5" to="-519323434#3"/>
    <trip id="311" depart="354.09" from="-641843738#6" to="-519323434#3"/>
    <trip id="312" depart="355.23" from="519323434#0" to="607435003#1"/>
    <trip id="313" depart="356.37" from="-519323440#2" to="1009909875#0"/>
    <trip id="314" depart="357.51" from="519322359#6" to="582793726#7"/>
    <trip id="315" depart="358.65" from="832517451#2" to="519323434#0"/>
    <trip id="316" depart="359.79" from="1069574888#2" to="-519323434#0"/>
    <trip id="317" depart="360.93" from="-641843738#6" to="1009909875#2"/>
    <trip id="318" depart="362.06" from="-519323440#2" to="-231177199#5"/>
    <trip id="319" depart="363.20" from="519323434#0" to="1015040650#5"/>
    <trip id="320" depart="364.34" from="832517451#2" to="519323434#5"/>
    <trip id="321" depart="365.48" from="582793726#5" to="-519323436#0"/>
    <trip id="322" depart="366.62" from="830620010#1" to="519322359#5"/>
    <trip id="323" depart="367.76" from="830620010#1" to="519323436#1"/>
    <trip id="324" depart="368.90" from="519322359#4" to="360560906#1"/>
    <trip id="325" depart="370.03" from="-519323440#2" to="-289494710#7"/>
    <trip id="326" depart="371.17" from="831143066" to="519322359#4"/>
    <trip id="327" depart="372.31" from="786182933#6" to="289494710#3"/>
    <trip id="328" depart="373.45" from="-519322383#1" to="531431467#3"/>
    <trip id="329" depart="374.59" from="-289494710#7" to="-519323436#2"/>
    <trip id="330" depart="375.73" from="519323436#1" to="1069574888#2"/>
    <trip id="331" depart="376.87" from="832517451#4" to="-519323434#3"/>
    <trip id="332" depart="378.00" from="607435003#1" to="519323439#0"/>
    <trip id="333" depart="379.14" from="641843738#4" to="1009909875#2"/>
    <trip id="334" depart="380.28" from="519322383#1" to="519322349#0"/>
    <trip id="335" depart="381.42" from="519322349#0" to="830620010#2"/>
    <trip id="336" depart="382.56" from="832517451#3" to="1069574888#3"/>
    <trip id="337" depart="383.70" from="531431467#5" to="519323440#0"/>
    <trip id="338" depart="384.84" from="590053401#0" to="832117945#2"/>
    <trip id="339" depart="385.97" from="1009909875#0" to="1009909875#0"/>
    <trip id="340" depart="387.11" from="582793726#10" to="-519323436#3"/>
    <trip id="341" depart="388.25" from="-519323440#0" to="-519322379#1"/>
    <trip id="342" depart="389.39" from="-1009909875#0" to="519322349#0"/>
    <trip id="343" depart="390.53" from="519323439#0" to="1069574886#3"/>
    <trip id="344" depart="391.67" from="1015040650#3" to="582793726#5"/>
    <trip id="345" depart="392.81" from="582793726#6" to="519322349#0"/>
    <trip id="346" depart="393.94" from="582793726#4" to="831143066"/>
    <trip id="347" depart="395.08" from="641843738#4" to="519323440#2"/>
    <trip id="348" depart="396.22" from="582793726#10" to="832117945#1"/>
    <trip id="349" depart="397.36" from="505097816#9" to="519323434#3"/>
    <trip id="350" depart="398.50" from="532529595#6" to="830627880#2"/>
    <trip id="351" depart="399.64" from="786182933#6" to="-519322379#1"/>
    <trip id="352" depart="400.78" from="-519323439#0" to="1069574888#3"/>
    <trip id="353" depart="401.91" from="590053401#1" to="519323435#1"/>
    <trip id="354" depart="403.05" from="1069574888#3" to="-519323436#0"/>
    <trip id="355" depart="404.19" from="582793726#4" to="582793726#11"/>
    <trip id="356" depart="405.33" from="831143066" to="519322359#6"/>
    <trip id="357" depart="406.47" from="519322359#8" to="-519322383#0"/>
    <trip id="358" depart="407.61" from="-289494710#5" to="289494710#8"/>
    <trip id="359" depart="408.75" from="1089043911#4" to="1015040650#3"/>
    <trip id="360" depart="409.88" from="-519323434#1" to="832517451#2"/>
    <trip id="361" depart="411.02" from="786182933#8" to="519323436#1"/>
    <trip id="362" depart="412.16" from="832117945#1" to="832517451#6"/>
    <trip id="363" depart="413.30" from="582793726#11" to="1015040650#5"/>
    <trip id="364" depart="414.44" from="-289494710#5" to="590053401#2"/>
    <trip id="365" depart="415.58" from="519322359#4" to="531431467#6"/>
    <trip id="366" depart="416.72" from="830627880#2" to="-641843738#4"/>
    <trip id="367" depart="417.85" from="519323439#0" to="531431467#3"/>
    <trip id="368" depart="418.99" from="519322359#8" to="-519322383#1"/>
    <trip id="369" depart="420.13" from="154646651#1" to="1089043911#2"/>
    <trip id="370" depart="421.27" from="582793726#11" to="830620010#2"/>
    <trip id="371" depart="422.41" from="1089043911#4" to="582793726#10"/>
    <trip id="372" depart="423.55" from="1069574888#3" to="832117945#2"/>
    <trip id="373" depart="424.69" from="786182933#5" to="519323434#3"/>
    <trip id="374" depart="425.82" from="519322359#3" to="1089043911#0"/>
    <trip id="375" depart="426.96" from="1089043911#4" to="832517451#2"/>
    <trip id="376" depart="428.10" from="289494710#7" to="519322383#1"/>
    <trip id="377" depart="429.24" from="832517451#3" to="531431467#8"/>
    <trip id="378" depart="430.38" from="519323434#1" to="289494710#5"/>
    <trip id="379" depart="431.52" from="-519323440#2" to="1089043911#5"/>
    <trip id="380" depart="432.66" from="590053401#2" to="519323440#2"/>
    <trip id="381" depart="433.79" from="590053401#2" to="-832117945#1"/>
    <trip id="382" depart="434.93" from="519323434#3" to="831143066"/>
    <trip id="383" depart="436.07" from="519322349#0" to="582793726#11"/>
    <trip id="384" depart="437.21" from="-519323435#1" to="832517451#3"/>
    <trip id="385" depart="438.35" from="531431467#3" to="1015040650#2"/>
    <trip id="386" depart="439.49" from="-519323436#3" to="519323434#3"/>
    <trip id="387" depart="440.63" from="519323434#3" to="-519322383#1"/>
    <trip id="388" depart="441.76" from="832517451#4" to="830627880#2"/>
    <trip id="389" depart="442.90" from="519322359#3" to="-519323434#3"/>
    <trip id="390" depart="444.04" from="786182933#8" to="519322359#6"/>
    <trip id="391" depart="445.18" from="582793726#7" to="519322359#8"/>
    <trip id="392" depart="446.32" from="1069574888#0" to="827278173#1"/>
    <trip id="393" depart="447.46" from="832517451#2" to="1015040650#2"/>
    <trip id="394" depart="448.60" from="519323434#3" to="284588841#2"/>
    <trip id="395" depart="449.73" from="830627880#2" to="519322359#8"/>
    <trip id="396" depart="450.87" from="830620010#2" to="830620010#2"/>
    <trip id="397" depart="452.01" from="1069574888#2" to="641843738#6"/>
    <trip id="398" depart="453.15" from="289494710#8" to="832117945#1"/>
    <trip id="399" depart="454.29" from="519322379#1" to="786182933#9"/>
    <trip id="400" depart="455.43" from="1069574888#2" to="1069574888#2"/>
    <trip id="401" depart="456.56" from="519323439#0" to="832517451#6"/>
    <trip id="402" depart="457.70" from="519322359#6" to="-519323436#2"/>