<?xml version="1.0" encoding="UTF-8"?>

<!-- generated on 2022-10-13 18:05:42 by Eclipse SUMO netedit Version 1.14.0
<configuration xmlns:xsi="http://www.w3.org/2001/XMLSchema-instance" xsi:noNamespaceSchemaLocation="http://sumo.dlr.de/xsd/netconvertConfiguration.xsd">

    <input>
        <sumo-net-file value="/Users/yang/Documents/GitHub/deeprl_network/envs/real_net_data/2022-10-11-08-57-04/osm.net.xml"/>
    </input>

    <output>
        <output-file value="/Users/yang/Documents/GitHub/deeprl_network/envs/real_net_data/2022-10-11-08-57-04/osm.net.xml"/>
        <output.street-names value="true"/>
    </output>

    <processing>
        <geometry.min-radius.fix.railways value="false"/>
        <geometry.max-grade.fix value="false"/>
        <offset.disable-normalization value="true"/>
        <lefthand value="false"/>
    </processing>

    <junctions>
        <no-turnarounds value="true"/>
        <junctions.corner-detail value="5"/>
        <junctions.limit-turn-speed value="5.5"/>
        <rectangular-lane-cut value="false"/>
    </junctions>

    <pedestrian>
        <walkingareas value="false"/>
    </pedestrian>

</configuration>
-->

<net version="1.9" junctionCornerDetail="5" limitTurnSpeed="5.50" xmlns:xsi="http://www.w3.org/2001/XMLSchema-instance" xsi:noNamespaceSchemaLocation="http://sumo.dlr.de/xsd/net_file.xsd">

    <location netOffset="-231218.58,-3335748.74" convBoundary="1675.42,0.00,14315.31,13194.53" origBoundary="120.206458,30.124562,120.356769,30.258944" projParameter="+proj=utm +zone=51 +ellps=WGS84 +datum=WGS84 +units=m +no_defs"/>

    <type id="highway.bridleway" priority="1" numLanes="1" speed="2.78" allow="pedestrian" oneway="1" width="2.00"/>
    <type id="highway.bus_guideway" priority="1" numLanes="1" speed="27.78" allow="bus" oneway="1"/>
    <type id="highway.cycleway" priority="1" numLanes="1" speed="5.56" allow="bicycle" oneway="0" width="1.00"/>
    <type id="highway.footway" priority="1" numLanes="1" speed="2.78" allow="pedestrian" oneway="1" width="2.00"/>
    <type id="highway.ford" priority="1" numLanes="1" speed="2.78" allow="army" oneway="0"/>
    <type id="highway.living_street" priority="2" numLanes="1" speed="2.78" disallow="tram rail_urban rail rail_electric rail_fast ship" oneway="0"/>
    <type id="highway.motorway" priority="14" numLanes="2" speed="39.44" allow="private emergency authority army vip passenger hov taxi bus coach delivery truck trailer motorcycle evehicle custom1 custom2" oneway="1"/>
    <type id="highway.motorway_link" priority="9" numLanes="1" speed="22.22" allow="private emergency authority army vip passenger hov taxi bus coach delivery truck trailer motorcycle evehicle custom1 custom2" oneway="1"/>
    <type id="highway.path" priority="1" numLanes="1" speed="5.56" allow="pedestrian bicycle" oneway="0" width="2.00"/>
    <type id="highway.pedestrian" priority="1" numLanes="1" speed="2.78" allow="pedestrian" oneway="1" width="2.00"/>
    <type id="highway.primary" priority="12" numLanes="2" speed="27.78" disallow="tram rail_urban rail rail_electric rail_fast ship" oneway="0"/>
    <type id="highway.primary_link" priority="7" numLanes="1" speed="22.22" disallow="tram rail_urban rail rail_electric rail_fast ship" oneway="0"/>
    <type id="highway.raceway" priority="15" numLanes="2" speed="83.33" allow="vip" oneway="0"/>
    <type id="highway.residential" priority="3" numLanes="1" speed="13.89" disallow="tram rail_urban rail rail_electric rail_fast ship" oneway="0"/>
    <type id="highway.secondary" priority="11" numLanes="1" speed="27.78" disallow="tram rail_urban rail rail_electric rail_fast ship" oneway="0"/>
    <type id="highway.secondary_link" priority="6" numLanes="1" speed="22.22" disallow="tram rail_urban rail rail_electric rail_fast ship" oneway="0"/>
    <type id="highway.service" priority="1" numLanes="1" speed="5.56" allow="pedestrian delivery bicycle" oneway="0"/>
    <type id="highway.stairs" priority="1" numLanes="1" speed="1.39" allow="pedestrian" oneway="1" width="2.00"/>
    <type id="highway.step" priority="1" numLanes="1" speed="1.39" allow="pedestrian" oneway="1" width="2.00"/>
    <type id="highway.steps" priority="1" numLanes="1" speed="1.39" allow="pedestrian" oneway="1" width="2.00"/>
    <type id="highway.tertiary" priority="10" numLanes="1" speed="22.22" disallow="tram rail_urban rail rail_electric rail_fast ship" oneway="0"/>
    <type id="highway.tertiary_link" priority="5" numLanes="1" speed="22.22" disallow="tram rail_urban rail rail_electric rail_fast ship" oneway="0"/>
    <type id="highway.track" priority="1" numLanes="1" speed="5.56" allow="pedestrian motorcycle moped bicycle" oneway="0"/>
    <type id="highway.trunk" priority="13" numLanes="2" speed="27.78" disallow="pedestrian bicycle tram rail_urban rail rail_electric rail_fast ship" oneway="0"/>
    <type id="highway.trunk_link" priority="8" numLanes="1" speed="22.22" disallow="pedestrian bicycle tram rail_urban rail rail_electric rail_fast ship" oneway="0"/>
    <type id="highway.unclassified" priority="4" numLanes="1" speed="13.89" disallow="tram rail_urban rail rail_electric rail_fast ship" oneway="0"/>
    <type id="highway.unsurfaced" priority="1" numLanes="1" speed="8.33" disallow="tram rail_urban rail rail_electric rail_fast ship" oneway="0"/>
    <type id="railway.highspeed" priority="21" numLanes="1" speed="69.44" allow="rail_fast" oneway="1"/>
    <type id="railway.light_rail" priority="19" numLanes="1" speed="27.78" allow="rail_urban" oneway="1"/>
    <type id="railway.preserved" priority="16" numLanes="1" speed="27.78" allow="rail" oneway="1"/>
    <type id="railway.rail" priority="20" numLanes="1" speed="44.44" allow="rail" oneway="1"/>
    <type id="railway.subway" priority="18" numLanes="1" speed="27.78" allow="rail_urban" oneway="1"/>
    <type id="railway.tram" priority="17" numLanes="1" speed="13.89" allow="tram" oneway="1"/>

    <edge id=":2890711208_0" function="internal">
        <lane id=":2890711208_0_0" index="0" disallow="tram rail_urban rail rail_electric rail_fast ship" speed="22.22" length="0.10" shape="4190.79,10082.58 4190.79,10082.58"/>
    </edge>
    <edge id=":2890711208_1" function="internal">
        <lane id=":2890711208_1_0" index="0" disallow="tram rail_urban rail rail_electric rail_fast ship" speed="22.22" length="0.10" shape="4190.65,10079.38 4190.65,10079.38"/>
    </edge>
    <edge id=":3530963266_0" function="internal">
        <lane id=":3530963266_0_0" index="0" disallow="tram rail_urban rail rail_electric rail_fast ship" speed="3.65" length="4.67" shape="2222.63,10248.99 2221.31,10248.40 2220.78,10247.68 2221.04,10246.83 2222.09,10245.83"/>
    </edge>
    <edge id=":5064096735_0" function="internal">
        <lane id=":5064096735_0_0" index="0" disallow="tram rail_urban rail rail_electric rail_fast ship" speed="3.65" length="4.67" shape="3321.80,10981.42 3321.04,10982.64 3320.25,10983.07 3319.44,10982.69 3318.60,10981.52"/>
    </edge>
    <edge id=":5064096736_0" function="internal">
        <lane id=":5064096736_0_0" index="0" disallow="tram rail_urban rail rail_electric rail_fast ship" speed="7.43" length="10.17" shape="3310.10,10709.82 3309.68,10706.85 3308.64,10704.61 3306.97,10703.07 3304.67,10702.26"/>
    </edge>
    <edge id=":5064096736_1" function="internal">
        <lane id=":5064096736_1_0" index="0" disallow="tram rail_urban rail rail_electric rail_fast ship" speed="3.65" length="1.44" shape="3310.10,10709.82 3310.86,10708.59"/>
    </edge>
    <edge id=":5064096736_5" function="internal">
        <lane id=":5064096736_5_0" index="0" disallow="tram rail_urban rail rail_electric rail_fast ship" speed="3.65" length="3.23" shape="3310.86,10708.59 3311.65,10708.17 3312.46,10708.54 3313.30,10709.72"/>
    </edge>
    <edge id=":5064096736_2" function="internal">
        <lane id=":5064096736_2_0" index="0" disallow="tram rail_urban rail rail_electric rail_fast ship" speed="6.11" length="9.06" shape="3318.99,10704.79 3316.43,10704.71 3314.63,10705.50 3313.58,10707.17 3313.30,10709.72"/>
    </edge>
    <edge id=":5064096736_3" function="internal">
        <lane id=":5064096736_3_0" index="0" disallow="tram rail_urban rail rail_electric rail_fast ship" speed="27.78" length="14.54" shape="3318.99,10704.79 3304.67,10702.26"/>
        <lane id=":5064096736_3_1" index="1" disallow="tram rail_urban rail rail_electric rail_fast ship" speed="27.78" length="14.54" shape="3319.55,10701.64 3305.23,10699.10"/>
    </edge>
    <edge id=":5064096739_0" function="internal">
        <lane id=":5064096739_0_0" index="0" disallow="tram rail_urban rail rail_electric rail_fast ship" speed="3.65" length="4.67" shape="3809.88,11095.51 3809.02,11096.67 3808.20,11097.03 3807.42,11096.59 3806.68,11095.35"/>
    </edge>
    <edge id=":5064105223_0" function="internal">
        <lane id=":5064105223_0_0" index="0" disallow="tram rail_urban rail rail_electric rail_fast ship" speed="22.22" length="20.80" shape="3290.47,10335.89 3289.29,10315.12"/>
    </edge>
    <edge id=":5064105223_1" function="internal">
        <lane id=":5064105223_1_0" index="0" disallow="tram rail_urban rail rail_electric rail_fast ship" speed="8.66" length="5.58" shape="3290.47,10335.89 3290.71,10330.62 3290.82,10330.33"/>
    </edge>
    <edge id=":5064105223_2" function="internal">
        <lane id=":5064105223_2_0" index="0" disallow="tram rail_urban rail rail_electric rail_fast ship" speed="3.65" length="1.44" shape="3290.47,10335.89 3291.20,10334.64"/>
    </edge>
    <edge id=":5064105223_9" function="internal">
        <lane id=":5064105223_9_0" index="0" disallow="tram rail_urban rail rail_electric rail_fast ship" speed="8.66" length="11.28" shape="3290.82,10330.33 3292.14,10326.78 3294.77,10324.39 3298.58,10323.43"/>
    </edge>
    <edge id=":5064105223_10" function="internal">
        <lane id=":5064105223_10_0" index="0" disallow="tram rail_urban rail rail_electric rail_fast ship" speed="3.65" length="3.23" shape="3291.20,10334.64 3291.97,10334.20 3292.79,10334.55 3293.66,10335.70"/>
    </edge>
    <edge id=":5064105223_3" function="internal">
        <lane id=":5064105223_3_0" index="0" disallow="tram rail_urban rail rail_electric rail_fast ship" speed="6.31" length="8.95" shape="3298.94,10330.09 3296.50,10330.40 3294.81,10331.44 3293.86,10333.20 3293.66,10335.70"/>
    </edge>
    <edge id=":5064105223_4" function="internal">
        <lane id=":5064105223_4_0" index="0" disallow="tram rail_urban rail rail_electric rail_fast ship" speed="9.60" length="19.69" shape="3298.94,10330.09 3295.02,10329.09 3292.10,10326.26 3290.19,10321.60 3289.29,10315.12"/>
    </edge>
    <edge id=":5064105223_5" function="internal">
        <lane id=":5064105223_5_0" index="0" disallow="tram rail_urban rail rail_electric rail_fast ship" speed="3.78" length="2.53" shape="3298.77,10326.88 3297.42,10326.09 3296.95,10325.25"/>
    </edge>
    <edge id=":5064105223_11" function="internal">
        <lane id=":5064105223_11_0" index="0" disallow="tram rail_urban rail rail_electric rail_fast ship" speed="3.78" length="2.53" shape="3296.95,10325.25 3297.33,10324.36 3298.58,10323.43"/>
    </edge>
    <edge id=":5064105223_6" function="internal">
        <lane id=":5064105223_6_0" index="0" disallow="tram rail_urban rail rail_electric rail_fast ship" speed="6.52" length="9.06" shape="3292.48,10314.95 3292.97,10317.37 3294.12,10319.06 3295.93,10320.02 3298.41,10320.23"/>
    </edge>
    <edge id=":5064105223_7" function="internal">
        <lane id=":5064105223_7_0" index="0" disallow="tram rail_urban rail rail_electric rail_fast ship" speed="22.22" length="20.79" shape="3292.48,10314.95 3293.66,10335.70"/>
    </edge>
    <edge id=":5064105223_8" function="internal">
        <lane id=":5064105223_8_0" index="0" disallow="tram rail_urban rail rail_electric rail_fast ship" speed="3.65" length="1.44" shape="3292.48,10314.95 3291.75,10316.19"/>
    </edge>
    <edge id=":5064105223_12" function="internal">
        <lane id=":5064105223_12_0" index="0" disallow="tram rail_urban rail rail_electric rail_fast ship" speed="3.65" length="3.23" shape="3291.75,10316.19 3290.97,10316.63 3290.15,10316.27 3289.29,10315.12"/>
    </edge>
    <edge id=":5064105224_0" function="internal">
        <lane id=":5064105224_0_0" index="0" disallow="tram rail_urban rail rail_electric rail_fast ship" speed="6.42" length="9.04" shape="3282.28,10185.66 3281.79,10183.22 3280.64,10181.55 3278.82,10180.66 3276.33,10180.55"/>
    </edge>
    <edge id=":5064105224_1" function="internal">
        <lane id=":5064105224_1_0" index="0" disallow="tram rail_urban rail rail_electric rail_fast ship" speed="8.15" length="14.25" shape="3282.28,10185.66 3282.60,10181.74 3284.05,10178.81 3286.63,10176.88 3290.34,10175.95"/>
    </edge>
    <edge id=":5064105224_2" function="internal">
        <lane id=":5064105224_2_0" index="0" disallow="tram rail_urban rail rail_electric rail_fast ship" speed="3.65" length="1.44" shape="3282.28,10185.66 3283.01,10184.42"/>
    </edge>
    <edge id=":5064105224_9" function="internal">
        <lane id=":5064105224_9_0" index="0" disallow="tram rail_urban rail rail_electric rail_fast ship" speed="3.65" length="3.23" shape="3283.01,10184.42 3283.79,10183.98 3284.61,10184.34 3285.47,10185.49"/>
    </edge>
    <edge id=":5064105224_3" function="internal">
        <lane id=":5064105224_3_0" index="0" disallow="tram rail_urban rail rail_electric rail_fast ship" speed="6.69" length="9.26" shape="3290.66,10179.13 3288.27,10179.74 3286.61,10181.00 3285.68,10182.92 3285.47,10185.49"/>
    </edge>
    <edge id=":5064105224_4" function="internal">
        <lane id=":5064105224_4_0" index="0" disallow="tram rail_urban rail rail_electric rail_fast ship" speed="22.22" length="14.40" shape="3290.66,10179.13 3276.33,10180.55"/>
    </edge>
    <edge id=":5064105224_5" function="internal">
        <lane id=":5064105224_5_0" index="0" disallow="tram rail_urban rail rail_electric rail_fast ship" speed="3.65" length="1.44" shape="3290.66,10179.13 3289.38,10178.46"/>
    </edge>
    <edge id=":5064105224_10" function="internal">
        <lane id=":5064105224_10_0" index="0" disallow="tram rail_urban rail rail_electric rail_fast ship" speed="3.65" length="3.23" shape="3289.38,10178.46 3288.91,10177.70 3289.22,10176.87 3290.34,10175.95"/>
    </edge>
    <edge id=":5064105224_6" function="internal">
        <lane id=":5064105224_6_0" index="0" disallow="tram rail_urban rail rail_electric rail_fast ship" speed="22.22" length="14.38" shape="3276.02,10177.36 3290.34,10175.95"/>
    </edge>
    <edge id=":5064105224_7" function="internal">
        <lane id=":5064105224_7_0" index="0" disallow="tram rail_urban rail rail_electric rail_fast ship" speed="7.93" length="4.08" shape="3276.02,10177.36 3279.98,10177.55 3280.09,10177.60"/>
    </edge>
    <edge id=":5064105224_8" function="internal">
        <lane id=":5064105224_8_0" index="0" disallow="tram rail_urban rail rail_electric rail_fast ship" speed="3.65" length="1.44" shape="3276.02,10177.36 3277.29,10178.04"/>
    </edge>
    <edge id=":5064105224_11" function="internal">
        <lane id=":5064105224_11_0" index="0" disallow="tram rail_urban rail rail_electric rail_fast ship" speed="7.93" length="10.27" shape="3280.09,10177.60 3282.87,10178.96 3284.70,10181.61 3285.47,10185.49"/>
    </edge>
    <edge id=":5064105224_12" function="internal">
        <lane id=":5064105224_12_0" index="0" disallow="tram rail_urban rail rail_electric rail_fast ship" speed="3.65" length="3.23" shape="3277.29,10178.04 3277.77,10178.80 3277.45,10179.64 3276.33,10180.55"/>
    </edge>
    <edge id=":5064105247_0" function="internal">
        <lane id=":5064105247_0_0" index="0" disallow="tram rail_urban rail rail_electric rail_fast ship" speed="6.98" length="9.63" shape="4037.26,9915.51 4039.97,9915.05 4041.96,9913.95 4043.23,9912.20 4043.78,9909.82"/>
    </edge>
    <edge id=":5064105247_1" function="internal">
        <lane id=":5064105247_1_0" index="0" disallow="tram rail_urban rail rail_electric rail_fast ship" speed="3.65" length="1.44" shape="4037.26,9915.51 4038.50,9916.25"/>
    </edge>
    <edge id=":5064105247_4" function="internal">
        <lane id=":5064105247_4_0" index="0" disallow="tram rail_urban rail rail_electric rail_fast ship" speed="3.65" length="3.23" shape="4038.50,9916.25 4038.93,9917.04 4038.57,9917.85 4037.41,9918.71"/>
    </edge>
    <edge id=":5064105247_2" function="internal">
        <lane id=":5064105247_2_0" index="0" disallow="tram rail_urban rail rail_electric rail_fast ship" speed="6.28" length="9.04" shape="4042.80,9924.22 4042.61,9921.71 4041.65,9919.96 4039.91,9918.95 4037.41,9918.71"/>
    </edge>
    <edge id=":5064105247_3" function="internal">
        <lane id=":5064105247_3_0" index="0" disallow="tram rail_urban rail rail_electric rail_fast ship" speed="27.78" length="14.44" shape="4042.80,9924.22 4043.78,9909.82"/>
    </edge>
    <edge id=":5064105248_0" function="internal">
        <lane id=":5064105248_0_0" index="0" disallow="tram rail_urban rail rail_electric rail_fast ship" speed="13.89" length="14.22" shape="3295.37,10009.77 3281.30,10011.85"/>
    </edge>
    <edge id=":5064105248_1" function="internal">
        <lane id=":5064105248_1_0" index="0" disallow="tram rail_urban rail rail_electric rail_fast ship" speed="7.98" length="3.91" shape="3295.37,10009.77 3291.47,10009.72"/>
    </edge>
    <edge id=":5064105248_2" function="internal">
        <lane id=":5064105248_2_0" index="0" disallow="tram rail_urban rail rail_electric rail_fast ship" speed="3.65" length="1.44" shape="3295.37,10009.77 3294.08,10009.13"/>
    </edge>
    <edge id=":5064105248_9" function="internal">
        <lane id=":5064105248_9_0" index="0" disallow="tram rail_urban rail rail_electric rail_fast ship" speed="7.98" length="10.33" shape="3291.47,10009.72 3288.53,10008.42 3286.56,10005.89 3285.56,10002.11"/>
    </edge>
    <edge id=":5064105248_10" function="internal">
        <lane id=":5064105248_10_0" index="0" disallow="tram rail_urban rail rail_electric rail_fast ship" speed="3.65" length="3.23" shape="3294.08,10009.13 3293.58,10008.39 3293.87,10007.54 3294.96,10006.60"/>
    </edge>
    <edge id=":5064105248_3" function="internal">
        <lane id=":5064105248_3_0" index="0" disallow="tram rail_urban rail rail_electric rail_fast ship" speed="6.48" length="9.03" shape="3288.74,10001.74 3289.37,10004.13 3290.62,10005.74 3292.48,10006.56 3294.96,10006.60"/>
    </edge>
    <edge id=":5064105248_4" function="internal">
        <lane id=":5064105248_4_0" index="0" disallow="tram rail_urban rail rail_electric rail_fast ship" speed="8.14" length="14.16" shape="3288.74,10001.74 3288.65,10005.63 3287.39,10008.61 3284.94,10010.69 3281.30,10011.85"/>
    </edge>
    <edge id=":5064105248_5" function="internal">
        <lane id=":5064105248_5_0" index="0" disallow="tram rail_urban rail rail_electric rail_fast ship" speed="3.65" length="1.44" shape="3288.74,10001.74 3288.08,10003.02"/>
    </edge>
    <edge id=":5064105248_11" function="internal">
        <lane id=":5064105248_11_0" index="0" disallow="tram rail_urban rail rail_electric rail_fast ship" speed="3.65" length="3.23" shape="3288.08,10003.02 3287.33,10003.51 3286.49,10003.21 3285.56,10002.11"/>
    </edge>
    <edge id=":5064105248_6" function="internal">
        <lane id=":5064105248_6_0" index="0" disallow="tram rail_urban rail rail_electric rail_fast ship" speed="6.67" length="9.18" shape="3280.77,10008.69 3283.12,10007.94 3284.69,10006.59 3285.51,10004.65 3285.56,10002.11"/>
    </edge>
    <edge id=":5064105248_7" function="internal">
        <lane id=":5064105248_7_0" index="0" disallow="tram rail_urban rail rail_electric rail_fast ship" speed="13.89" length="14.34" shape="3280.77,10008.69 3294.96,10006.60"/>
    </edge>
    <edge id=":5064105248_8" function="internal">
        <lane id=":5064105248_8_0" index="0" disallow="tram rail_urban rail rail_electric rail_fast ship" speed="3.65" length="1.44" shape="3280.77,10008.69 3282.09,10009.28"/>
    </edge>
    <edge id=":5064105248_12" function="internal">
        <lane id=":5064105248_12_0" index="0" disallow="tram rail_urban rail rail_electric rail_fast ship" speed="3.65" length="3.23" shape="3282.09,10009.28 3282.62,10010.01 3282.35,10010.86 3281.30,10011.85"/>
    </edge>
    <edge id=":5064105251_0" function="internal">
        <lane id=":5064105251_0_0" index="0" disallow="tram rail_urban rail rail_electric rail_fast ship" speed="3.65" length="4.67" shape="3231.47,9527.31 3232.14,9526.03 3232.89,9525.55 3233.73,9525.86 3234.65,9526.97"/>
    </edge>
    <edge id=":5064105256_0" function="internal">
        <lane id=":5064105256_0_0" index="0" disallow="tram rail_urban rail rail_electric rail_fast ship" speed="13.89" length="14.30" shape="3560.64,9965.30 3546.50,9967.50"/>
    </edge>
    <edge id=":5064105256_1" function="internal">
        <lane id=":5064105256_1_0" index="0" disallow="tram rail_urban rail rail_electric rail_fast ship" speed="7.76" length="4.13" shape="3560.64,9965.30 3556.50,9965.28"/>
    </edge>
    <edge id=":5064105256_2" function="internal">
        <lane id=":5064105256_2_0" index="0" disallow="tram rail_urban rail rail_electric rail_fast ship" speed="3.65" length="1.44" shape="3560.64,9965.30 3559.34,9964.68"/>
    </edge>
    <edge id=":5064105256_9" function="internal">
        <lane id=":5064105256_9_0" index="0" disallow="tram rail_urban rail rail_electric rail_fast ship" speed="7.76" length="10.64" shape="3556.50,9965.28 3553.56,9963.89 3551.81,9961.15 3551.25,9957.06"/>
    </edge>
    <edge id=":5064105256_10" function="internal">
        <lane id=":5064105256_10_0" index="0" disallow="tram rail_urban rail rail_electric rail_fast ship" speed="3.65" length="3.23" shape="3559.34,9964.68 3558.83,9963.94 3559.12,9963.09 3560.20,9962.13"/>
    </edge>
    <edge id=":5064105256_3" function="internal">
        <lane id=":5064105256_3_0" index="0" disallow="tram rail_urban rail rail_electric rail_fast ship" speed="6.22" length="9.05" shape="3554.45,9957.08 3554.79,9959.59 3555.87,9961.27 3557.67,9962.12 3560.20,9962.13"/>
    </edge>
    <edge id=":5064105256_4" function="internal">
        <lane id=":5064105256_4_0" index="0" disallow="tram rail_urban rail rail_electric rail_fast ship" speed="8.64" length="14.41" shape="3554.45,9957.08 3553.93,9961.12 3552.43,9964.20 3549.95,9966.33 3546.50,9967.50"/>
    </edge>
    <edge id=":5064105256_5" function="internal">
        <lane id=":5064105256_5_0" index="0" disallow="tram rail_urban rail rail_electric rail_fast ship" speed="3.65" length="1.44" shape="3554.45,9957.08 3553.64,9958.28"/>
    </edge>
    <edge id=":5064105256_11" function="internal">
        <lane id=":5064105256_11_0" index="0" disallow="tram rail_urban rail rail_electric rail_fast ship" speed="3.65" length="3.23" shape="3553.64,9958.28 3552.84,9958.67 3552.04,9958.26 3551.25,9957.06"/>
    </edge>
    <edge id=":5064105256_6" function="internal">
        <lane id=":5064105256_6_0" index="0" disallow="tram rail_urban rail rail_electric rail_fast ship" speed="7.26" length="9.90" shape="3545.95,9964.35 3548.25,9963.55 3549.90,9962.06 3550.90,9959.90 3551.25,9957.06"/>
    </edge>
    <edge id=":5064105256_7" function="internal">
        <lane id=":5064105256_7_0" index="0" disallow="tram rail_urban rail rail_electric rail_fast ship" speed="13.89" length="14.42" shape="3545.95,9964.35 3560.20,9962.13"/>
    </edge>
    <edge id=":5064105256_8" function="internal">
        <lane id=":5064105256_8_0" index="0" disallow="tram rail_urban rail rail_electric rail_fast ship" speed="3.65" length="1.44" shape="3545.95,9964.35 3547.27,9964.93"/>
    </edge>
    <edge id=":5064105256_12" function="internal">
        <lane id=":5064105256_12_0" index="0" disallow="tram rail_urban rail rail_electric rail_fast ship" speed="3.65" length="3.23" shape="3547.27,9964.93 3547.80,9965.65 3547.55,9966.50 3546.50,9967.50"/>
    </edge>
    <edge id=":5064105257_0" function="internal">
        <lane id=":5064105257_0_0" index="0" disallow="tram rail_urban rail rail_electric rail_fast ship" speed="13.89" length="14.44" shape="3862.50,9926.54 3848.18,9928.38"/>
    </edge>
    <edge id=":5064105257_1" function="internal">
        <lane id=":5064105257_1_0" index="0" disallow="tram rail_urban rail rail_electric rail_fast ship" speed="7.95" length="3.39" shape="3862.50,9926.54 3859.13,9926.25"/>
    </edge>
    <edge id=":5064105257_2" function="internal">
        <lane id=":5064105257_2_0" index="0" disallow="tram rail_urban rail rail_electric rail_fast ship" speed="3.69" length="1.44" shape="3862.50,9926.54 3861.21,9925.90"/>
    </edge>
    <edge id=":5064105257_9" function="internal">
        <lane id=":5064105257_9_0" index="0" disallow="tram rail_urban rail rail_electric rail_fast ship" speed="7.95" length="10.94" shape="3859.13,9926.25 3858.42,9926.19 3855.49,9924.71 3853.70,9922.10 3853.07,9918.36"/>
    </edge>
    <edge id=":5064105257_10" function="internal">
        <lane id=":5064105257_10_0" index="0" disallow="tram rail_urban rail rail_electric rail_fast ship" speed="3.69" length="3.23" shape="3861.21,9925.90 3860.71,9925.16 3861.01,9924.31 3862.10,9923.37"/>
    </edge>
    <edge id=":5064105257_3" function="internal">
        <lane id=":5064105257_3_0" index="0" disallow="tram rail_urban rail rail_electric rail_fast ship" speed="6.28" length="9.04" shape="3856.27,9918.31 3856.66,9920.80 3857.77,9922.47 3859.58,9923.33 3862.10,9923.37"/>
    </edge>
    <edge id=":5064105257_4" function="internal">
        <lane id=":5064105257_4_0" index="0" disallow="tram rail_urban rail rail_electric rail_fast ship" speed="8.40" length="14.38" shape="3856.27,9918.31 3855.81,9922.32 3854.31,9925.34 3851.77,9927.36 3848.18,9928.38"/>
    </edge>
    <edge id=":5064105257_5" function="internal">
        <lane id=":5064105257_5_0" index="0" disallow="tram rail_urban rail rail_electric rail_fast ship" speed="3.65" length="1.44" shape="3856.27,9918.31 3855.48,9919.53"/>
    </edge>
    <edge id=":5064105257_11" function="internal">
        <lane id=":5064105257_11_0" index="0" disallow="tram rail_urban rail rail_electric rail_fast ship" speed="3.65" length="3.23" shape="3855.48,9919.53 3854.69,9919.94 3853.88,9919.55 3853.07,9918.36"/>
    </edge>
    <edge id=":5064105257_6" function="internal">
        <lane id=":5064105257_6_0" index="0" disallow="tram rail_urban rail rail_electric rail_fast ship" speed="6.98" length="9.63" shape="3847.77,9925.21 3850.12,9924.52 3851.79,9923.15 3852.77,9921.10 3853.07,9918.36"/>
    </edge>
    <edge id=":5064105257_7" function="internal">
        <lane id=":5064105257_7_0" index="0" disallow="tram rail_urban rail rail_electric rail_fast ship" speed="13.89" length="14.44" shape="3847.77,9925.21 3862.10,9923.37"/>
    </edge>
    <edge id=":5064105257_8" function="internal">
        <lane id=":5064105257_8_0" index="0" disallow="tram rail_urban rail rail_electric rail_fast ship" speed="3.65" length="1.44" shape="3847.77,9925.21 3849.07,9925.85"/>
    </edge>
    <edge id=":5064105257_12" function="internal">
        <lane id=":5064105257_12_0" index="0" disallow="tram rail_urban rail rail_electric rail_fast ship" speed="3.65" length="3.23" shape="3849.07,9925.85 3849.56,9926.59 3849.27,9927.43 3848.18,9928.38"/>
    </edge>
    <edge id=":5064105260_0" function="internal">
        <lane id=":5064105260_0_0" index="0" disallow="tram rail_urban rail rail_electric rail_fast ship" speed="3.65" length="4.67" shape="3843.77,9458.68 3844.54,9457.46 3845.33,9457.04 3846.14,9457.42 3846.97,9458.60"/>
    </edge>
    <edge id=":5158769572_0" function="internal">
        <lane id=":5158769572_0_0" index="0" disallow="tram rail_urban rail rail_electric rail_fast ship" speed="6.05" length="9.07" shape="3828.64,10823.40 3826.09,10823.04 3824.23,10823.63 3823.05,10825.20 3822.57,10827.73"/>
    </edge>
    <edge id=":5158769572_1" function="internal">
        <lane id=":5158769572_1_0" index="0" disallow="tram rail_urban rail rail_electric rail_fast ship" speed="27.78" length="15.99" shape="3828.64,10823.40 3813.30,10818.89"/>
        <lane id=":5158769572_1_1" index="1" disallow="tram rail_urban rail rail_electric rail_fast ship" speed="27.78" length="15.99" shape="3829.55,10820.33 3814.20,10815.82"/>
    </edge>
    <edge id=":5158769572_3" function="internal">
        <lane id=":5158769572_3_0" index="0" disallow="tram rail_urban rail rail_electric rail_fast ship" speed="8.52" length="13.72" shape="3829.55,10820.33 3825.37,10818.72 3822.45,10816.73 3820.80,10814.34 3820.42,10811.56"/>
    </edge>
    <edge id=":5158769572_4" function="internal">
        <lane id=":5158769572_4_0" index="0" disallow="tram rail_urban rail rail_electric rail_fast ship" speed="13.89" length="15.93" shape="3823.61,10811.83 3822.57,10827.73"/>
    </edge>
    <edge id=":5158769572_5" function="internal">
        <lane id=":5158769572_5_0" index="0" disallow="tram rail_urban rail rail_electric rail_fast ship" speed="6.97" length="2.84" shape="3823.61,10811.83 3822.81,10814.55"/>
    </edge>
    <edge id=":5158769572_6" function="internal">
        <lane id=":5158769572_6_0" index="0" disallow="tram rail_urban rail rail_electric rail_fast ship" speed="3.65" length="1.44" shape="3823.61,10811.83 3822.71,10812.96"/>
    </edge>
    <edge id=":5158769572_10" function="internal">
        <lane id=":5158769572_10_0" index="0" disallow="tram rail_urban rail rail_electric rail_fast ship" speed="6.97" length="9.29" shape="3822.81,10814.55 3820.98,10816.12 3818.11,10816.55 3814.20,10815.82"/>
    </edge>
    <edge id=":5158769572_11" function="internal">
        <lane id=":5158769572_11_0" index="0" disallow="tram rail_urban rail rail_electric rail_fast ship" speed="3.65" length="3.23" shape="3822.71,10812.96 3821.88,10813.29 3821.12,10812.83 3820.42,10811.56"/>
    </edge>
    <edge id=":5158769572_7" function="internal">