<configuration>
  <input>
    <net-file value="xiaoshan/osm.net.xml"/>
    <route-files value="xiaoshan/osm.passenger.trips.xml/>
  </input>
  <time>
    <begin value="0"/>
    <end value="3600"/>
  </time>
</configuration>
