<configuration>
  <input>
    <net-file value="xiaoshan/xiaoshan.net.xml"/>
    <route-files value="xiaoshan/xiaoshan3.trips.xml"/>
  </input>
  <time>
    <begin value="0"/>
    <end value="3600"/>
  </time>
</configuration>
