<configuration>
  <input>
    <edge-files value="exp.edg.xml"/>
    <node-files value="exp.nod.xml"/>
    <type-files value="exp.typ.xml"/>
    <tllogic-files value="exp.tll.xml"/>
    <connection-files value="exp.con.xml"/>
    <additional-files value="exp.add.xml"/>
  </input>
  <output>
    <output-file value="exp.net.xml"/>
  </output>
</configuration>
