<routes>
  <vType id="type1" length="5" accel="5" decel="10"/>
  <flow id="i1" departPos="random_free" from="np10_nt25" to="nt21_np16" begin="0" end="3600" departSpeed="0" probability="0.003" type="type1"/>
  <flow id="i2" departPos="random_free" from="np9_nt20" to="nt21_np16" begin="0" end="3600" departLane="0" departSpeed="0" probability="0.006" type="type1"/>
  <flow id="i3" departPos="random_free" from="np8_nt15" to="nt21_np16" begin="0" end="3600" departLane="0" departSpeed="0" probability="0.006" type="type1"/>
  <flow id="i4" departPos="random_free" from="np7_nt10" to="nt21_np16" begin="0" end="3600" departLane="0" departSpeed="0" probability="0.006" type="type1"/>
  <flow id="i5" departPos="random_free" from="np6_nt5" to="nt21_np16" begin="0" end="3600" departLane="0" departSpeed="0" probability="0.006" type="type1"/>
  <flow id="i6" departPos="random_free" from="np10_nt25" to="nt16_np17" begin="0" end="3600" departLane="1" departSpeed="0" probability="0.006" type="type1"/>
  <flow id="i7" departPos="random_free" from="np9_nt20" to="nt16_np17" begin="0" end="3600" departSpeed="0" probability="0.003" type="type1"/>
  <flow id="i8" departPos="random_free" from="np8_nt15" to="nt16_np17" begin="0" end="3600" departLane="0" departSpeed="0" probability="0.006" type="type1"/>
  <flow id="i9" departPos="random_free" from="np7_nt10" to="nt16_np17" begin="0" end="3600" departLane="0" departSpeed="0" probability="0.006" type="type1"/>
  <flow id="i10" departPos="random_free" from="np6_nt5" to="nt16_np17" begin="0" end="3600" departLane="0" departSpeed="0" probability="0.006" type="type1"/>
  <flow id="i11" departPos="random_free" from="np10_nt25" to="nt11_np18" begin="0" end="3600" departLane="1" departSpeed="0" probability="0.006" type="type1"/>
  <flow id="i12" departPos="random_free" from="np9_nt20" to="nt11_np18" begin="0" end="3600" departLane="1" departSpeed="0" probability="0.006" type="type1"/>
  <flow id="i13" departPos="random_free" from="np8_nt15" to="nt11_np18" begin="0" end="3600" departSpeed="0" probability="0.003" type="type1"/>
  <flow id="i14" departPos="random_free" from="np7_nt10" to="nt11_np18" begin="0" end="3600" departLane="0" departSpeed="0" probability="0.006" type="type1"/>
  <flow id="i15" departPos="random_free" from="np6_nt5" to="nt11_np18" begin="0" end="3600" departLane="0" departSpeed="0" probability="0.006" type="type1"/>
  <flow id="i16" departPos="random_free" from="np10_nt25" to="nt6_np19" begin="0" end="3600" departLane="1" departSpeed="0" probability="0.006" type="type1"/>
  <flow id="i17" departPos="random_free" from="np9_nt20" to="nt6_np19" begin="0" end="3600" departLane="1" departSpeed="0" probability="0.006" type="type1"/>
  <flow id="i18" departPos="random_free" from="np8_nt15" to="nt6_np19" begin="0" end="3600" departLane="1" departSpeed="0" probability="0.006" type="type1"/>
  <flow id="i19" departPos="random_free" from="np7_nt10" to="nt6_np19" begin="0" end="3600" departSpeed="0" probability="0.003" type="type1"/>
  <flow id="i20" departPos="random_free" from="np6_nt5" to="nt6_np19" begin="0" end="3600" departLane="0" departSpeed="0" probability="0.006" type="type1"/>
  <flow id="i21" departPos="random_free" from="np10_nt25" to="nt1_np20" begin="0" end="3600" departLane="1" departSpeed="0" probability="0.006" type="type1"/>
  <flow id="i22" departPos="random_free" from="np9_nt20" to="nt1_np20" begin="0" end="3600" departLane="1" departSpeed="0" probability="0.006" type="type1"/>
  <flow id="i23" departPos="random_free" from="np8_nt15" to="nt1_np20" begin="0" end="3600" departLane="1" departSpeed="0" probability="0.006" type="type1"/>
  <flow id="i24" departPos="random_free" from="np7_nt10" to="nt1_np20" begin="0" end="3600" departLane="1" departSpeed="0" probability="0.006" type="type1"/>
  <flow id="i25" departPos="random_free" from="np6_nt5" to="nt1_np20" begin="0" end="3600" departSpeed="0" probability="0.003" type="type1"/>
  <flow id="i26" departPos="random_free" from="np10_nt25" to="nt21_np15" begin="0" end="3600" departLane="0" departSpeed="0" probability="0.006" type="type1"/>
  <flow id="i27" departPos="random_free" from="np9_nt20" to="nt21_np15" begin="0" end="3600" departLane="0" departSpeed="0" probability="0.006" type="type1"/>
  <flow id="i28" departPos="random_free" from="np8_nt15" to="nt21_np15" begin="0" end="3600" departLane="0" departSpeed="0" probability="0.006" type="type1"/>
  <flow id="i29" departPos="random_free" from="np7_nt10" to="nt21_np15" begin="0" end="3600" departLane="0" departSpeed="0" probability="0.006" type="type1"/>
  <flow id="i30" departPos="random_free" from="np6_nt5" to="nt21_np15" begin="0" end="3600" departLane="0" departSpeed="0" probability="0.006" type="type1"/>
  <flow id="i31" departPos="random_free" from="np10_nt25" to="nt22_np14" begin="0" end="3600" departLane="0" departSpeed="0" probability="0.006" type="type1"/>
  <flow id="i32" departPos="random_free" from="np9_nt20" to="nt22_np14" begin="0" end="3600" departLane="0" departSpeed="0" probability="0.006" type="type1"/>
  <flow id="i33" departPos="random_free" from="np8_nt15" to="nt22_np14" begin="0" end="3600" departLane="0" departSpeed="0" probability="0.006" type="type1"/>
  <flow id="i34" departPos="random_free" from="np7_nt10" to="nt22_np14" begin="0" end="3600" departLane="0" departSpeed="0" probability="0.006" type="type1"/>
  <flow id="i35" departPos="random_free" from="np6_nt5" to="nt22_np14" begin="0" end="3600" departLane="0" departSpeed="0" probability="0.006" type="type1"/>
  <flow id="i36" departPos="random_free" from="np10_nt25" to="nt23_np13" begin="0" end="3600" departLane="0" departSpeed="0" probability="0.006" type="type1"/>
  <flow id="i37" departPos="random_free" from="np9_nt20" to="nt23_np13" begin="0" end="3600" departLane="0" departSpeed="0" probability="0.006" type="type1"/>
  <flow id="i38" departPos="random_free" from="np8_nt15" to="nt23_np13" begin="0" end="3600" departLane="0" departSpeed="0" probability="0.006" type="type1"/>
  <flow id="i39" departPos="random_free" from="np7_nt10" to="nt23_np13" begin="0" end="3600" departLane="0" departSpeed="0" probability="0.006" type="type1"/>
  <flow id="i40" departPos="random_free" from="np6_nt5" to="nt23_np13" begin="0" end="3600" departLane="0" departSpeed="0" probability="0.006" type="type1"/>
  <flow id="i41" departPos="random_free" from="np10_nt25" to="nt24_np12" begin="0" end="3600" departLane="0" departSpeed="0" probability="0.006" type="type1"/>
  <flow id="i42" departPos="random_free" from="np9_nt20" to="nt24_np12" begin="0" end="3600" departLane="0" departSpeed="0" probability="0.006" type="type1"/>
  <flow id="i43" departPos="random_free" from="np8_nt15" to="nt24_np12" begin="0" end="3600" departLane="0" departSpeed="0" probability="0.006" type="type1"/>
  <flow id="i44" departPos="random_free" from="np7_nt10" to="nt24_np12" begin="0" end="3600" departLane="0" departSpeed="0" probability="0.006" type="type1"/>
  <flow id="i45" departPos="random_free" from="np6_nt5" to="nt24_np12" begin="0" end="3600" departLane="0" departSpeed="0" probability="0.006" type="type1"/>
  <flow id="i46" departPos="random_free" from="np10_nt25" to="nt25_np11" begin="0" end="3600" departLane="0" departSpeed="0" probability="0.006" type="type1"/>
  <flow id="i47" departPos="random_free" from="np9_nt20" to="nt25_np11" begin="0" end="3600" departLane="0" departSpeed="0" probability="0.006" type="type1"/>
  <flow id="i48" departPos="random_free" from="np8_nt15" to="nt25_np11" begin="0" end="3600" departLane="0" departSpeed="0" probability="0.006" type="type1"/>
  <flow id="i49" departPos="random_free" from="np7_nt10" to="nt25_np11" begin="0" end="3600" departLane="0" departSpeed="0" probability="0.006" type="type1"/>
  <flow id="i50" departPos="random_free" from="np6_nt5" to="nt25_np11" begin="0" end="3600" departLane="0" departSpeed="0" probability="0.006" type="type1"/>
  <flow id="i51" departPos="random_free" from="np10_nt25" to="nt1_np1" begin="0" end="3600" departLane="1" departSpeed="0" probability="0.006" type="type1"/>
  <flow id="i52" departPos="random_free" from="np9_nt20" to="nt1_np1" begin="0" end="3600" departLane="1" departSpeed="0" probability="0.006" type="type1"/>
  <flow id="i53" departPos="random_free" from="np8_nt15" to="nt1_np1" begin="0" end="3600" departLane="1" departSpeed="0" probability="0.006" type="type1"/>
  <flow id="i54" departPos="random_free" from="np7_nt10" to="nt1_np1" begin="0" end="3600" departLane="1" departSpeed="0" probability="0.006" type="type1"/>
  <flow id="i55" departPos="random_free" from="np6_nt5" to="nt1_np1" begin="0" end="3600" departLane="1" departSpeed="0" probability="0.006" type="type1"/>
  <flow id="i56" departPos="random_free" from="np10_nt25" to="nt2_np2" begin="0" end="3600" departLane="1" departSpeed="0" probability="0.006" type="type1"/>
  <flow id="i57" departPos="random_free" from="np9_nt20" to="nt2_np2" begin="0" end="3600" departLane="1" departSpeed="0" probability="0.006" type="type1"/>
  <flow id="i58" departPos="random_free" from="np8_nt15" to="nt2_np2" begin="0" end="3600" departLane="1" departSpeed="0" probability="0.006" type="type1"/>
  <flow id="i59" departPos="random_free" from="np7_nt10" to="nt2_np2" begin="0" end="3600" departLane="1" departSpeed="0" probability="0.006" type="type1"/>
  <flow id="i60" departPos="random_free" from="np6_nt5" to="nt2_np2" begin="0" end="3600" departLane="1" departSpeed="0" probability="0.006" type="type1"/>
  <flow id="i61" departPos="random_free" from="np10_nt25" to="nt3_np3" begin="0" end="3600" departLane="1" departSpeed="0" probability="0.006" type="type1"/>
  <flow id="i62" departPos="random_free" from="np9_nt20" to="nt3_np3" begin="0" end="3600" departLane="1" departSpeed="0" probability="0.006" type="type1"/>
  <flow id="i63" departPos="random_free" from="np8_nt15" to="nt3_np3" begin="0" end="3600" departLane="1" departSpeed="0" probability="0.006" type="type1"/>
  <flow id="i64" departPos="random_free" from="np7_nt10" to="nt3_np3" begin="0" end="3600" departLane="1" departSpeed="0" probability="0.006" type="type1"/>
  <flow id="i65" departPos="random_free" from="np6_nt5" to="nt3_np3" begin="0" end="3600" departLane="1" departSpeed="0" probability="0.006" type="type1"/>
  <flow id="i66" departPos="random_free" from="np10_nt25" to="nt4_np4" begin="0" end="3600" departLane="1" departSpeed="0" probability="0.006" type="type1"/>
  <flow id="i67" departPos="random_free" from="np9_nt20" to="nt4_np4" begin="0" end="3600" departLane="1" departSpeed="0" probability="0.006" type="type1"/>
  <flow id="i68" departPos="random_free" from="np8_nt15" to="nt4_np4" begin="0" end="3600" departLane="1" departSpeed="0" probability="0.006" type="type1"/>
  <flow id="i69" departPos="random_free" from="np7_nt10" to="nt4_np4" begin="0" end="3600" departLane="1" departSpeed="0" probability="0.006" type="type1"/>
  <flow id="i70" departPos="random_free" from="np6_nt5" to="nt4_np4" begin="0" end="3600" departLane="1" departSpeed="0" probability="0.006" type="type1"/>
  <flow id="i71" departPos="random_free" from="np10_nt25" to="nt5_np5" begin="0" end="3600" departLane="1" departSpeed="0" probability="0.006" type="type1"/>
  <flow id="i72" departPos="random_free" from="np9_nt20" to="nt5_np5" begin="0" end="3600" departLane="1" departSpeed="0" probability="0.006" type="type1"/>
  <flow id="i73" departPos="random_free" from="np8_nt15" to="nt5_np5" begin="0" end="3600" departLane="1" departSpeed="0" probability="0.006" type="type1"/>
  <flow id="i74" departPos="random_free" from="np7_nt10" to="nt5_np5" begin="0" end="3600" departLane="1" departSpeed="0" probability="0.006" type="type1"/>
  <flow id="i75" departPos="random_free" from="np6_nt5" to="nt5_np5" begin="0" end="3600" departLane="1" departSpeed="0" probability="0.006" type="type1"/>
  <flow id="i76" departPos="random_free" from="np16_nt21" to="nt25_np10" begin="0" end="3600" departSpeed="0" probability="0.003" type="type1"/>
  <flow id="i77" departPos="random_free" from="np17_nt16" to="nt25_np10" begin="0" end="3600" departLane="1" departSpeed="0" probability="0.006" type="type1"/>
  <flow id="i78" departPos="random_free" from="np18_nt11" to="nt25_np10" begin="0" end="3600" departLane="1" departSpeed="0" probability="0.006" type="type1"/>
  <flow id="i79" departPos="random_free" from="np19_nt6" to="nt25_np10" begin="0" end="3600" departLane="1" departSpeed="0" probability="0.006" type="type1"/>
  <flow id="i80" departPos="random_free" from="np20_nt1" to="nt25_np10" begin="0" end="3600" departLane="1" departSpeed="0" probability="0.006" type="type1"/>
  <flow id="i81" departPos="random_free" from="np16_nt21" to="nt20_np9" begin="0" end="3600" departLane="0" departSpeed="0" probability="0.006" type="type1"/>
  <flow id="i82" departPos="random_free" from="np17_nt16" to="nt20_np9" begin="0" end="3600" departSpeed="0" probability="0.003" type="type1"/>
  <flow id="i83" departPos="random_free" from="np18_nt11" to="nt20_np9" begin="0" end="3600" departLane="1" departSpeed="0" probability="0.006" type="type1"/>
  <flow id="i84" departPos="random_free" from="np19_nt6" to="nt20_np9" begin="0" end="3600" departLane="1" departSpeed="0" probability="0.006" type="type1"/>
  <flow id="i85" departPos="random_free" from="np20_nt1" to="nt20_np9" begin="0" end="3600" departLane="1" departSpeed="0" probability="0.006" type="type1"/>
  <flow id="i86" departPos="random_free" from="np16_nt21" to="nt15_np8" begin="0" end="3600" departLane="0" departSpeed="0" probability="0.006" type="type1"/>
  <flow id="i87" departPos="random_free" from="np17_nt16" to="nt15_np8" begin="0" end="3600" departLane="0" departSpeed="0" probability="0.006" type="type1"/>
  <flow id="i88" departPos="random_free" from="np18_nt11" to="nt15_np8" begin="0" end="3600" departSpeed="0" probability="0.003" type="type1"/>
  <flow id="i89" departPos="random_free" from="np19_nt6" to="nt15_np8" begin="0" end="3600" departLane="1" departSpeed="0" probability="0.006" type="type1"/>
  <flow id="i90" departPos="random_free" from="np20_nt1" to="nt15_np8" begin="0" end="3600" departLane="1" departSpeed="0" probability="0.006" type="type1"/>
  <flow id="i91" departPos="random_free" from="np16_nt21" to="nt10_np7" begin="0" end="3600" departLane="0" departSpeed="0" probability="0.006" type="type1"/>
  <flow id="i92" departPos="random_free" from="np17_nt16" to="nt10_np7" begin="0" end="3600" departLane="0" departSpeed="0" probability="0.006" type="type1"/>
  <flow id="i93" departPos="random_free" from="np18_nt11" to="nt10_np7" begin="0" end="3600" departLane="0" departSpeed="0" probability="0.006" type="type1"/>
  <flow id="i94" departPos="random_free" from="np19_nt6" to="nt10_np7" begin="0" end="3600" departSpeed="0" probability="0.003" type="type1"/>
  <flow id="i95" departPos="random_free" from="np20_nt1" to="nt10_np7" begin="0" end="3600" departLane="1" departSpeed="0" probability="0.006" type="type1"/>
  <flow id="i96" departPos="random_free" from="np16_nt21" to="nt5_np6" begin="0" end="3600" departLane="0" departSpeed="0" probability="0.006" type="type1"/>
  <flow id="i97" departPos="random_free" from="np17_nt16" to="nt5_np6" begin="0" end="3600" departLane="0" departSpeed="0" probability="0.006" type="type1"/>
  <flow id="i98" departPos="random_free" from="np18_nt11" to="nt5_np6" begin="0" end="3600" departLane="0" departSpeed="0" probability="0.006" type="type1"/>
  <flow id="i99" departPos="random_free" from="np19_nt6" to="nt5_np6" begin="0" end="3600" departLane="0" departSpeed="0" probability="0.006" type="type1"/>
  <flow id="i100" departPos="random_free" from="np20_nt1" to="nt5_np6" begin="0" end="3600" departSpeed="0" probability="0.003" type="type1"/>
  <flow id="i101" departPos="random_free" from="np16_nt21" to="nt21_np15" begin="0" end="3600" departLane="1" departSpeed="0" probability="0.006" type="type1"/>
  <flow id="i102" departPos="random_free" from="np17_nt16" to="nt21_np15" begin="0" end="3600" departLane="1" departSpeed="0" probability="0.006" type="type1"/>
  <flow id="i103" departPos="random_free" from="np18_nt11" to="nt21_np15" begin="0" end="3600" departLane="1" departSpeed="0" probability="0.006" type="type1"/>
  <flow id="i104" departPos="random_free" from="np19_nt6" to="nt21_np15" begin="0" end="3600" departLane="1" departSpeed="0" probability="0.006" type="type1"/>
  <flow id="i105" departPos="random_free" from="np20_nt1" to="nt21_np15" begin="0" end="3600" departLane="1" departSpeed="0" probability="0.006" type="type1"/>
  <flow id="i106" departPos="random_free" from="np16_nt21" to="nt22_np14" begin="0" end="3600" departLane="1" departSpeed="0" probability="0.006" type="type1"/>
  <flow id="i107" departPos="random_free" from="np17_nt16" to="nt22_np14" begin="0" end="3600" departLane="1" departSpeed="0" probability="0.006" type="type1"/>
  <flow id="i108" departPos="random_free" from="np18_nt11" to="nt22_np14" begin="0" end="3600" departLane="1" departSpeed="0" probability="0.006" type="type1"/>
  <flow id="i109" departPos="random_free" from="np19_nt6" to="nt22_np14" begin="0" end="3600" departLane="1" departSpeed="0" probability="0.006" type="type1"/>
  <flow id="i110" departPos="random_free" from="np20_nt1" to="nt22_np14" begin="0" end="3600" departLane="1" departSpeed="0" probability="0.006" type="type1"/>
  <flow id="i111" departPos="random_free" from="np16_nt21" to="nt23_np13" begin="0" end="3600" departLane="1" departSpeed="0" probability="0.006" type="type1"/>
  <flow id="i112" departPos="random_free" from="np17_nt16" to="nt23_np13" begin="0" end="3600" departLane="1" departSpeed="0" probability="0.006" type="type1"/>
  <flow id="i113" departPos="random_free" from="np18_nt11" to="nt23_np13" begin="0" end="3600" departLane="1" departSpeed="0" probability="0.006" type="type1"/>
  <flow id="i114" departPos="random_free" from="np19_nt6" to="nt23_np13" begin="0" end="3600" departLane="1" departSpeed="0" probability="0.006" type="type1"/>
  <flow id="i115" departPos="random_free" from="np20_nt1" to="nt23_np13" begin="0" end="3600" departLane="1" departSpeed="0" probability="0.006" type="type1"/>
  <flow id="i116" departPos="random_free" from="np16_nt21" to="nt24_np12" begin="0" end="3600" departLane="1" departSpeed="0" probability="0.006" type="type1"/>
  <flow id="i117" departPos="random_free" from="np17_nt16" to="nt24_np12" begin="0" end="3600" departLane="1" departSpeed="0" probability="0.006" type="type1"/>
  <flow id="i118" departPos="random_free" from="np18_nt11" to="nt24_np12" begin="0" end="3600" departLane="1" departSpeed="0" probability="0.006" type="type1"/>
  <flow id="i119" departPos="random_free" from="np19_nt6" to="nt24_np12" begin="0" end="3600" departLane="1" departSpeed="0" probability="0.006" type="type1"/>
  <flow id="i120" departPos="random_free" from="np20_nt1" to="nt24_np12" begin="0" end="3600" departLane="1" departSpeed="0" probability="0.006" type="type1"/>
  <flow id="i121" departPos="random_free" from="np16_nt21" to="nt25_np11" begin="0" end="3600" departLane="1" departSpeed="0" probability="0.006" type="type1"/>
  <flow id="i122" departPos="random_free" from="np17_nt16" to="nt25_np11" begin="0" end="3600" departLane="1" departSpeed="0" probability="0.006" type="type1"/>
  <flow id="i123" departPos="random_free" from="np18_nt11" to="nt25_np11" begin="0" end="3600" departLane="1" departSpeed="0" probability="0.006" type="type1"/>
  <flow id="i124" departPos="random_free" from="np19_nt6" to="nt25_np11" begin="0" end="3600" departLane="1" departSpeed="0" probability="0.006" type="type1"/>
  <flow id="i125" departPos="random_free" from="np20_nt1" to="nt25_np11" begin="0" end="3600" departLane="1" departSpeed="0" probability="0.006" type="type1"/>
  <flow id="i126" departPos="random_free" from="np16_nt21" to="nt1_np1" begin="0" end="3600" departLane="0" departSpeed="0" probability="0.006" type="type1"/>
  <flow id="i127" departPos="random_free" from="np17_nt16" to="nt1_np1" begin="0" end="3600" departLane="0" departSpeed="0" probability="0.006" type="type1"/>
  <flow id="i128" departPos="random_free" from="np18_nt11" to="nt1_np1" begin="0" end="3600" departLane="0" departSpeed="0" probability="0.006" type="type1"/>
  <flow id="i129" departPos="random_free" from="np19_nt6" to="nt1_np1" begin="0" end="3600" departLane="0" departSpeed="0" probability="0.006" type="type1"/>
  <flow id="i130" departPos="random_free" from="np20_nt1" to="nt1_np1" begin="0" end="3600" departLane="0" departSpeed="0" probability="0.006" type="type1"/>
  <flow id="i131" departPos="random_free" from="np16_nt21" to="nt2_np2" begin="0" end="3600" departLane="0" departSpeed="0" probability="0.006" type="type1"/>
  <flow id="i132" departPos="random_free" from="np17_nt16" to="nt2_np2" begin="0" end="3600" departLane="0" departSpeed="0" probability="0.006" type="type1"/>
  <flow id="i133" departPos="random_free" from="np18_nt11" to="nt2_np2" begin="0" end="3600" departLane="0" departSpeed="0" probability="0.006" type="type1"/>
  <flow id="i134" departPos="random_free" from="np19_nt6" to="nt2_np2" begin="0" end="3600" departLane="0" departSpeed="0" probability="0.006" type="type1"/>
  <flow id="i135" departPos="random_free" from="np20_nt1" to="nt2_np2" begin="0" end="3600" departLane="0" departSpeed="0" probability="0.006" type="type1"/>
  <flow id="i136" departPos="random_free" from="np16_nt21" to="nt3_np3" begin="0" end="3600" departLane="0" departSpeed="0" probability="0.006" type="type1"/>
  <flow id="i137" departPos="random_free" from="np17_nt16" to="nt3_np3" begin="0" end="3600" departLane="0" departSpeed="0" probability="0.006" type="type1"/>
  <flow id="i138" departPos="random_free" from="np18_nt11" to="nt3_np3" begin="0" end="3600" departLane="0" departSpeed="0" probability="0.006" type="type1"/>
  <flow id="i139" departPos="random_free" from="np19_nt6" to="nt3_np3" begin="0" end="3600" departLane="0" departSpeed="0" probability="0.006" type="type1"/>
  <flow id="i140" departPos="random_free" from="np20_nt1" to="nt3_np3" begin="0" end="3600" departLane="0" departSpeed="0" probability="0.006" type="type1"/>
  <flow id="i141" departPos="random_free" from="np16_nt21" to="nt4_np4" begin="0" end="3600" departLane="0" departSpeed="0" probability="0.006" type="type1"/>
  <flow id="i142" departPos="random_free" from="np17_nt16" to="nt4_np4" begin="0" end="3600" departLane="0" departSpeed="0" probability="0.006" type="type1"/>
  <flow id="i143" departPos="random_free" from="np18_nt11" to="nt4_np4" begin="0" end="3600" departLane="0" departSpeed="0" probability="0.006" type="type1"/>
  <flow id="i144" departPos="random_free" from="np19_nt6" to="nt4_np4" begin="0" end="3600" departLane="0" departSpeed="0" probability="0.006" type="type1"/>
  <flow id="i145" departPos="random_free" from="np20_nt1" to="nt4_np4" begin="0" end="3600" departLane="0" departSpeed="0" probability="0.006" type="type1"/>
  <flow id="i146" departPos="random_free" from="np16_nt21" to="nt5_np5" begin="0" end="3600" departLane="0" departSpeed="0" probability="0.006" type="type1"/>
  <flow id="i147" departPos="random_free" from="np17_nt16" to="nt5_np5" begin="0" end="3600" departLane="0" departSpeed="0" probability="0.006" type="type1"/>
  <flow id="i148" departPos="random_free" from="np18_nt11" to="nt5_np5" begin="0" end="3600" departLane="0" departSpeed="0" probability="0.006" type="type1"/>
  <flow id="i149" departPos="random_free" from="np19_nt6" to="nt5_np5" begin="0" end="3600" departLane="0" departSpeed="0" probability="0.006" type="type1"/>
  <flow id="i150" departPos="random_free" from="np20_nt1" to="nt5_np5" begin="0" end="3600" departLane="0" departSpeed="0" probability="0.006" type="type1"/>
  <flow id="i151" departPos="random_free" from="np15_nt21" to="nt1_np1" begin="0" end="3600" departSpeed="0" probability="0.003" type="type1"/>
  <flow id="i152" departPos="random_free" from="np14_nt22" to="nt1_np1" begin="0" end="3600" departLane="0" departSpeed="0" probability="0.006" type="type1"/>
  <flow id="i153" departPos="random_free" from="np13_nt23" to="nt1_np1" begin="0" end="3600" departLane="0" departSpeed="0" probability="0.006" type="type1"/>
  <flow id="i154" departPos="random_free" from="np12_nt24" to="nt1_np1" begin="0" end="3600" departLane="0" departSpeed="0" probability="0.006" type="type1"/>
  <flow id="i155" departPos="random_free" from="np11_nt25" to="nt1_np1" begin="0" end="3600" departLane="0" departSpeed="0" probability="0.006" type="type1"/>
  <flow id="i156" departPos="random_free" from="np15_nt21" to="nt2_np2" begin="0" end="3600" departLane="1" departSpeed="0" probability="0.006" type="type1"/>
  <flow id="i157" departPos="random_free" from="np14_nt22" to="nt2_np2" begin="0" end="3600" departSpeed="0" probability="0.003" type="type1"/>
  <flow id="i158" departPos="random_free" from="np13_nt23" to="nt2_np2" begin="0" end="3600" departLane="0" departSpeed="0" probability="0.006" type="type1"/>
  <flow id="i159" departPos="random_free" from="np12_nt24" to="nt2_np2" begin="0" end="3600" departLane="0" departSpeed="0" probability="0.006" type="type1"/>
  <flow id="i160" departPos="random_free" from="np11_nt25" to="nt2_np2" begin="0" end="3600" departLane="0" departSpeed="0" probability="0.006" type="type1"/>
  <flow id="i161" departPos="random_free" from="np15_nt21" to="nt3_np3" begin="0" end="3600" departLane="1" departSpeed="0" probability="0.006" type="type1"/>
  <flow id="i162" departPos="random_free" from="np14_nt22" to="nt3_np3" begin="0" end="3600" departLane="1" departSpeed="0" probability="0.006" type="type1"/>
  <flow id="i163" departPos="random_free" from="np13_nt23" to="nt3_np3" begin="0" end="3600" departSpeed="0" probability="0.003" type="type1"/>
  <flow id="i164" departPos="random_free" from="np12_nt24" to="nt3_np3" begin="0" end="3600" departLane="0" departSpeed="0" probability="0.006" type="type1"/>
  <flow id="i165" departPos="random_free" from="np11_nt25" to="nt3_np3" begin="0" end="3600" departLane="0" departSpeed="0" probability="0.006" type="type1"/>
  <flow id="i166" departPos="random_free" from="np15_nt21" to="nt4_np4" begin="0" end="3600" departLane="1" departSpeed="0" probability="0.006" type="type1"/>
  <flow id="i167" departPos="random_free" from="np14_nt22" to="nt4_np4" begin="0" end="3600" departLane="1" departSpeed="0" probability="0.006" type="type1"/>
  <flow id="i168" departPos="random_free" from="np13_nt23" to="nt4_np4" begin="0" end="3600" departLane="1" departSpeed="0" probability="0.006" type="type1"/>
  <flow id="i169" departPos="random_free" from="np12_nt24" to="nt4_np4" begin="0" end="3600" departSpeed="0" probability="0.003" type="type1"/>
  <flow id="i170" departPos="random_free" from="np11_nt25" to="nt4_np4" begin="0" end="3600" departLane="0" departSpeed="0" probability="0.006" type="type1"/>
  <flow id="i171" departPos="random_free" from="np15_nt21" to="nt5_np5" begin="0" end="3600" departLane="1" departSpeed="0" probability="0.006" type="type1"/>
  <flow id="i172" departPos="random_free" from="np14_nt22" to="nt5_np5" begin="0" end="3600" departLane="1" departSpeed="0" probability="0.006" type="type1"/>
  <flow id="i173" departPos="random_free" from="np13_nt23" to="nt5_np5" begin="0" end="3600" departLane="1" departSpeed="0" probability="0.006" type="type1"/>
  <flow id="i174" departPos="random_free" from="np12_nt24" to="nt5_np5" begin="0" end="3600" departLane="1" departSpeed="0" probability="0.006" type="type1"/>
  <flow id="i175" departPos="random_free" from="np11_nt25" to="nt5_np5" begin="0" end="3600" departSpeed="0" probability="0.003" type="type1"/>
  <flow id="i176" departPos="random_free" from="np15_nt21" to="nt21_np16" begin="0" end="3600" departLane="0" departSpeed="0" probability="0.006" type="type1"/>
  <flow id="i177" departPos="random_free" from="np14_nt22" to="nt21_np16" begin="0" end="3600" departLane="0" departSpeed="0" probability="0.006" type="type1"/>
  <flow id="i178" departPos="random_free" from="np13_nt23" to="nt21_np16" begin="0" end="3600" departLane="0" departSpeed="0" probability="0.006" type="type1"/>
  <flow id="i179" departPos="random_free" from="np12_nt24" to="nt21_np16" begin="0" end="3600" departLane="0" departSpeed="0" probability="0.006" type="type1"/>
  <flow id="i180" departPos="random_free" from="np11_nt25" to="nt21_np16" begin="0" end="3600" departLane="0" departSpeed="0" probability="0.006" type="type1"/>
  <flow id="i181" departPos="random_free" from="np15_nt21" to="nt16_np17" begin="0" end="3600" departLane="0" departSpeed="0" probability="0.006" type="type1"/>
  <flow id="i182" departPos="random_free" from="np14_nt22" to="nt16_np17" begin="0" end="3600" departLane="0" departSpeed="0" probability="0.006" type="type1"/>
  <flow id="i183" departPos="random_free" from="np13_nt23" to="nt16_np17" begin="0" end="3600" departLane="0" departSpeed="0" probability="0.006" type="type1"/>
  <flow id="i184" departPos="random_free" from="np12_nt24" to="nt16_np17" begin="0" end="3600" departLane="0" departSpeed="0" probability="0.006" type="type1"/>
  <flow id="i185" departPos="random_free" from="np11_nt25" to="nt16_np17" begin="0" end="3600" departLane="0" departSpeed="0" probability="0.006" type="type1"/>
  <flow id="i186" departPos="random_free" from="np15_nt21" to="nt11_np18" begin="0" end="3600" departLane="0" departSpeed="0" probability="0.006" type="type1"/>
  <flow id="i187" departPos="random_free" from="np14_nt22" to="nt11_np18" begin="0" end="3600" departLane="0" departSpeed="0" probability="0.006" type="type1"/>
  <flow id="i188" departPos="random_free" from="np13_nt23" to="nt11_np18" begin="0" end="3600" departLane="0" departSpeed="0" probability="0.006" type="type1"/>
  <flow id="i189" departPos="random_free" from="np12_nt24" to="nt11_np18" begin="0" end="3600" departLane="0" departSpeed="0" probability="0.006" type="type1"/>