<?xml version="1.0" encoding="UTF-8"?>

<!-- generated on 2022-09-19 13:31:33 by Eclipse SUMO netconvert Version 1.14.0
<configuration xmlns:xsi="http://www.w3.org/2001/XMLSchema-instance" xsi:noNamespaceSchemaLocation="http://sumo.dlr.de/xsd/netconvertConfiguration.xsd">

    <input>
        <node-files value="exp.nod.xml"/>
        <edge-files value="exp.edg.xml"/>
        <connection-files value="exp.con.xml"/>
        <tllogic-files value="exp.tll.xml"/>
        <type-files value="exp.typ.xml"/>
    </input>

    <output>
        <output-file value="exp.net.xml"/>
    </output>

</configuration>
-->

<net version="1.9" junctionCornerDetail="5" limitTurnSpeed="5.50" xmlns:xsi="http://www.w3.org/2001/XMLSchema-instance" xsi:noNamespaceSchemaLocation="http://sumo.dlr.de/xsd/net_file.xsd">

    <location netOffset="75.00,75.00" convBoundary="0.00,0.00,950.00,950.00" origBoundary="-75.00,-75.00,875.00,875.00" projParameter="!"/>

    <type id="a" priority="1" numLanes="2" speed="20.00"/>
    <type id="b" priority="1" numLanes="2" speed="20.00"/>

    <edge id=":np1_0" function="internal">
        <lane id=":np1_0_0" index="0" speed="3.65" length="4.67" shape="73.40,0.00 74.20,-1.20 75.00,-1.60 75.80,-1.20 76.60,0.00"/>
    </edge>
    <edge id=":np10_0" function="internal">
        <lane id=":np10_0_0" index="0" speed="3.65" length="4.67" shape="950.00,873.40 951.20,874.20 951.60,875.00 951.20,875.80 950.00,876.60"/>
    </edge>
    <edge id=":np11_0" function="internal">
        <lane id=":np11_0_0" index="0" speed="3.65" length="4.67" shape="876.60,950.00 875.80,951.20 875.00,951.60 874.20,951.20 873.40,950.00"/>
    </edge>
    <edge id=":np12_0" function="internal">
        <lane id=":np12_0_0" index="0" speed="3.65" length="4.67" shape="676.60,950.00 675.80,951.20 675.00,951.60 674.20,951.20 673.40,950.00"/>
    </edge>
    <edge id=":np13_0" function="internal">
        <lane id=":np13_0_0" index="0" speed="3.65" length="4.67" shape="476.60,950.00 475.80,951.20 475.00,951.60 474.20,951.20 473.40,950.00"/>
    </edge>
    <edge id=":np14_0" function="internal">
        <lane id=":np14_0_0" index="0" speed="3.65" length="4.67" shape="276.60,950.00 275.80,951.20 275.00,951.60 274.20,951.20 273.40,950.00"/>
    </edge>
    <edge id=":np15_0" function="internal">
        <lane id=":np15_0_0" index="0" speed="3.65" length="4.67" shape="76.60,950.00 75.80,951.20 75.00,951.60 74.20,951.20 73.40,950.00"/>
    </edge>
    <edge id=":np16_0" function="internal">
        <lane id=":np16_0_0" index="0" speed="3.65" length="4.67" shape="0.00,876.60 -1.20,875.80 -1.60,875.00 -1.20,874.20 0.00,873.40"/>
    </edge>
    <edge id=":np17_0" function="internal">
        <lane id=":np17_0_0" index="0" speed="3.65" length="4.67" shape="0.00,676.60 -1.20,675.80 -1.60,675.00 -1.20,674.20 0.00,673.40"/>
    </edge>
    <edge id=":np18_0" function="internal">
        <lane id=":np18_0_0" index="0" speed="3.65" length="4.67" shape="0.00,476.60 -1.20,475.80 -1.60,475.00 -1.20,474.20 0.00,473.40"/>
    </edge>
    <edge id=":np19_0" function="internal">
        <lane id=":np19_0_0" index="0" speed="3.65" length="4.67" shape="0.00,276.60 -1.20,275.80 -1.60,275.00 -1.20,274.20 0.00,273.40"/>
    </edge>
    <edge id=":np2_0" function="internal">
        <lane id=":np2_0_0" index="0" speed="3.65" length="4.67" shape="273.40,0.00 274.20,-1.20 275.00,-1.60 275.80,-1.20 276.60,0.00"/>
    </edge>
    <edge id=":np20_0" function="internal">
        <lane id=":np20_0_0" index="0" speed="3.65" length="4.67" shape="0.00,76.60 -1.20,75.80 -1.60,75.00 -1.20,74.20 0.00,73.40"/>
    </edge>
    <edge id=":np3_0" function="internal">
        <lane id=":np3_0_0" index="0" speed="3.65" length="4.67" shape="473.40,0.00 474.20,-1.20 475.00,-1.60 475.80,-1.20 476.60,0.00"/>
    </edge>
    <edge id=":np4_0" function="internal">
        <lane id=":np4_0_0" index="0" speed="3.65" length="4.67" shape="673.40,0.00 674.20,-1.20 675.00,-1.60 675.80,-1.20 676.60,0.00"/>
    </edge>
    <edge id=":np5_0" function="internal">
        <lane id=":np5_0_0" index="0" speed="3.65" length="4.67" shape="873.40,0.00 874.20,-1.20 875.00,-1.60 875.80,-1.20 876.60,0.00"/>
    </edge>
    <edge id=":np6_0" function="internal">
        <lane id=":np6_0_0" index="0" speed="3.65" length="4.67" shape="950.00,73.40 951.20,74.20 951.60,75.00 951.20,75.80 950.00,76.60"/>
    </edge>
    <edge id=":np7_0" function="internal">
        <lane id=":np7_0_0" index="0" speed="3.65" length="4.67" shape="950.00,273.40 951.20,274.20 951.60,275.00 951.20,275.80 950.00,276.60"/>
    </edge>
    <edge id=":np8_0" function="internal">
        <lane id=":np8_0_0" index="0" speed="3.65" length="4.67" shape="950.00,473.40 951.20,474.20 951.60,475.00 951.20,475.80 950.00,476.60"/>
    </edge>
    <edge id=":np9_0" function="internal">
        <lane id=":np9_0_0" index="0" speed="3.65" length="4.67" shape="950.00,673.40 951.20,674.20 951.60,675.00 951.20,675.80 950.00,676.60"/>
    </edge>
    <edge id=":nt1_0" function="internal">
        <lane id=":nt1_0_0" index="0" speed="6.51" length="9.03" shape="70.20,85.40 69.85,82.95 68.80,81.20 67.05,80.15 64.60,79.80"/>
    </edge>
    <edge id=":nt1_1" function="internal">
        <lane id=":nt1_1_0" index="0" speed="20.00" length="20.80" shape="70.20,85.40 70.20,64.60"/>
    </edge>
    <edge id=":nt1_2" function="internal">
        <lane id=":nt1_2_0" index="0" speed="9.26" length="10.42" shape="73.40,85.40 74.15,80.15 76.40,76.40 77.04,76.02"/>
    </edge>
    <edge id=":nt1_12" function="internal">
        <lane id=":nt1_12_0" index="0" speed="9.26" length="8.93" shape="77.04,76.02 80.15,74.15 85.40,73.40"/>
    </edge>
    <edge id=":nt1_3" function="internal">
        <lane id=":nt1_3_0" index="0" speed="6.51" length="9.03" shape="85.40,79.80 82.95,80.15 81.20,81.20 80.15,82.95 79.80,85.40"/>
    </edge>
    <edge id=":nt1_4" function="internal">
        <lane id=":nt1_4_0" index="0" speed="20.00" length="20.80" shape="85.40,79.80 64.60,79.80"/>
    </edge>
    <edge id=":nt1_5" function="internal">
        <lane id=":nt1_5_0" index="0" speed="9.26" length="19.35" shape="85.40,76.60 80.15,75.85 76.40,73.60 74.15,69.85 73.40,64.60"/>
    </edge>
    <edge id=":nt1_6" function="internal">
        <lane id=":nt1_6_0" index="0" speed="6.51" length="9.03" shape="79.80,64.60 80.15,67.05 81.20,68.80 82.95,69.85 85.40,70.20"/>
    </edge>
    <edge id=":nt1_7" function="internal">
        <lane id=":nt1_7_0" index="0" speed="20.00" length="20.80" shape="79.80,64.60 79.80,85.40"/>
    </edge>
    <edge id=":nt1_8" function="internal">
        <lane id=":nt1_8_0" index="0" speed="9.26" length="10.42" shape="76.60,64.60 75.85,69.85 73.60,73.60 72.96,73.98"/>
    </edge>
    <edge id=":nt1_13" function="internal">
        <lane id=":nt1_13_0" index="0" speed="9.26" length="8.93" shape="72.96,73.98 69.85,75.85 64.60,76.60"/>
    </edge>
    <edge id=":nt1_9" function="internal">
        <lane id=":nt1_9_0" index="0" speed="6.51" length="9.03" shape="64.60,70.20 67.05,69.85 68.80,68.80 69.85,67.05 70.20,64.60"/>
    </edge>
    <edge id=":nt1_10" function="internal">
        <lane id=":nt1_10_0" index="0" speed="20.00" length="20.80" shape="64.60,70.20 85.40,70.20"/>
    </edge>
    <edge id=":nt1_11" function="internal">
        <lane id=":nt1_11_0" index="0" speed="9.26" length="19.35" shape="64.60,73.40 69.85,74.15 73.60,76.40 75.85,80.15 76.60,85.40"/>
    </edge>
    <edge id=":nt10_0" function="internal">
        <lane id=":nt10_0_0" index="0" speed="6.51" length="9.03" shape="870.20,285.40 869.85,282.95 868.80,281.20 867.05,280.15 864.60,279.80"/>
    </edge>
    <edge id=":nt10_1" function="internal">
        <lane id=":nt10_1_0" index="0" speed="20.00" length="20.80" shape="870.20,285.40 870.20,264.60"/>
    </edge>
    <edge id=":nt10_2" function="internal">
        <lane id=":nt10_2_0" index="0" speed="9.26" length="10.42" shape="873.40,285.40 874.15,280.15 876.40,276.40 877.04,276.02"/>
    </edge>
    <edge id=":nt10_12" function="internal">
        <lane id=":nt10_12_0" index="0" speed="9.26" length="8.93" shape="877.04,276.02 880.15,274.15 885.40,273.40"/>
    </edge>
    <edge id=":nt10_3" function="internal">
        <lane id=":nt10_3_0" index="0" speed="6.51" length="9.03" shape="885.40,279.80 882.95,280.15 881.20,281.20 880.15,282.95 879.80,285.40"/>
    </edge>
    <edge id=":nt10_4" function="internal">
        <lane id=":nt10_4_0" index="0" speed="20.00" length="20.80" shape="885.40,279.80 864.60,279.80"/>
    </edge>
    <edge id=":nt10_5" function="internal">
        <lane id=":nt10_5_0" index="0" speed="9.26" length="19.35" shape="885.40,276.60 880.15,275.85 876.40,273.60 874.15,269.85 873.40,264.60"/>
    </edge>
    <edge id=":nt10_6" function="internal">
        <lane id=":nt10_6_0" index="0" speed="6.51" length="9.03" shape="879.80,264.60 880.15,267.05 881.20,268.80 882.95,269.85 885.40,270.20"/>
    </edge>
    <edge id=":nt10_7" function="internal">
        <lane id=":nt10_7_0" index="0" speed="20.00" length="20.80" shape="879.80,264.60 879.80,285.40"/>
    </edge>
    <edge id=":nt10_8" function="internal">
        <lane id=":nt10_8_0" index="0" speed="9.26" length="10.42" shape="876.60,264.60 875.85,269.85 873.60,273.60 872.96,273.98"/>
    </edge>
    <edge id=":nt10_13" function="internal">
        <lane id=":nt10_13_0" index="0" speed="9.26" length="8.93" shape="872.96,273.98 869.85,275.85 864.60,276.60"/>
    </edge>
    <edge id=":nt10_9" function="internal">
        <lane id=":nt10_9_0" index="0" speed="6.51" length="9.03" shape="864.60,270.20 867.05,269.85 868.80,268.80 869.85,267.05 870.20,264.60"/>
    </edge>
    <edge id=":nt10_10" function="internal">
        <lane id=":nt10_10_0" index="0" speed="20.00" length="20.80" shape="864.60,270.20 885.40,270.20"/>
    </edge>
    <edge id=":nt10_11" function="internal">
        <lane id=":nt10_11_0" index="0" speed="9.26" length="19.35" shape="864.60,273.40 869.85,274.15 873.60,276.40 875.85,280.15 876.60,285.40"/>
    </edge>
    <edge id=":nt11_0" function="internal">
        <lane id=":nt11_0_0" index="0" speed="6.51" length="9.03" shape="70.20,485.40 69.85,482.95 68.80,481.20 67.05,480.15 64.60,479.80"/>
    </edge>
    <edge id=":nt11_1" function="internal">
        <lane id=":nt11_1_0" index="0" speed="20.00" length="20.80" shape="70.20,485.40 70.20,464.60"/>
    </edge>
    <edge id=":nt11_2" function="internal">
        <lane id=":nt11_2_0" index="0" speed="9.26" length="10.42" shape="73.40,485.40 74.15,480.15 76.40,476.40 77.04,476.02"/>
    </edge>
    <edge id=":nt11_12" function="internal">
        <lane id=":nt11_12_0" index="0" speed="9.26" length="8.93" shape="77.04,476.02 80.15,474.15 85.40,473.40"/>
    </edge>
    <edge id=":nt11_3" function="internal">
        <lane id=":nt11_3_0" index="0" speed="6.51" length="9.03" shape="85.40,479.80 82.95,480.15 81.20,481.20 80.15,482.95 79.80,485.40"/>
    </edge>
    <edge id=":nt11_4" function="internal">
        <lane id=":nt11_4_0" index="0" speed="20.00" length="20.80" shape="85.40,479.80 64.60,479.80"/>
    </edge>
    <edge id=":nt11_5" function="internal">
        <lane id=":nt11_5_0" index="0" speed="9.26" length="19.35" shape="85.40,476.60 80.15,475.85 76.40,473.60 74.15,469.85 73.40,464.60"/>
    </edge>
    <edge id=":nt11_6" function="internal">
        <lane id=":nt11_6_0" index="0" speed="6.51" length="9.03" shape="79.80,464.60 80.15,467.05 81.20,468.80 82.95,469.85 85.40,470.20"/>
    </edge>
    <edge id=":nt11_7" function="internal">
        <lane id=":nt11_7_0" index="0" speed="20.00" length="20.80" shape="79.80,464.60 79.80,485.40"/>
    </edge>
    <edge id=":nt11_8" function="internal">
        <lane id=":nt11_8_0" index="0" speed="9.26" length="10.42" shape="76.60,464.60 75.85,469.85 73.60,473.60 72.96,473.98"/>
    </edge>
    <edge id=":nt11_13" function="internal">
        <lane id=":nt11_13_0" index="0" speed="9.26" length="8.93" shape="72.96,473.98 69.85,475.85 64.60,476.60"/>
    </edge>
    <edge id=":nt11_9" function="internal">
        <lane id=":nt11_9_0" index="0" speed="6.51" length="9.03" shape="64.60,470.20 67.05,469.85 68.80,468.80 69.85,467.05 70.20,464.60"/>
    </edge>
    <edge id=":nt11_10" function="internal">
        <lane id=":nt11_10_0" index="0" speed="20.00" length="20.80" shape="64.60,470.20 85.40,470.20"/>
    </edge>
    <edge id=":nt11_11" function="internal">
        <lane id=":nt11_11_0" index="0" speed="9.26" length="19.35" shape="64.60,473.40 69.85,474.15 73.60,476.40 75.85,480.15 76.60,485.40"/>
    </edge>
    <edge id=":nt12_0" function="internal">
        <lane id=":nt12_0_0" index="0" speed="6.51" length="9.03" shape="270.20,485.40 269.85,482.95 268.80,481.20 267.05,480.15 264.60,479.80"/>
    </edge>
    <edge id=":nt12_1" function="internal">
        <lane id=":nt12_1_0" index="0" speed="20.00" length="20.80" shape="270.20,485.40 270.20,464.60"/>
    </edge>
    <edge id=":nt12_2" function="internal">
        <lane id=":nt12_2_0" index="0" speed="9.26" length="10.42" shape="273.40,485.40 274.15,480.15 276.40,476.40 277.04,476.02"/>
    </edge>
    <edge id=":nt12_12" function="internal">
        <lane id=":nt12_12_0" index="0" speed="9.26" length="8.93" shape="277.04,476.02 280.15,474.15 285.40,473.40"/>
    </edge>
    <edge id=":nt12_3" function="internal">
        <lane id=":nt12_3_0" index="0" speed="6.51" length="9.03" shape="285.40,479.80 282.95,480.15 281.20,481.20 280.15,482.95 279.80,485.40"/>
    </edge>
    <edge id=":nt12_4" function="internal">
        <lane id=":nt12_4_0" index="0" speed="20.00" length="20.80" shape="285.40,479.80 264.60,479.80"/>
    </edge>
    <edge id=":nt12_5" function="internal">
        <lane id=":nt12_5_0" index="0" speed="9.26" length="19.35" shape="285.40,476.60 280.15,475.85 276.40,473.60 274.15,469.85 273.40,464.60"/>
    </edge>
    <edge id=":nt12_6" function="internal">
        <lane id=":nt12_6_0" index="0" speed="6.51" length="9.03" shape="279.80,464.60 280.15,467.05 281.20,468.80 282.95,469.85 285.40,470.20"/>
    </edge>
    <edge id=":nt12_7" function="internal">
        <lane id=":nt12_7_0" index="0" speed="20.00" length="20.80" shape="279.80,464.60 279.80,485.40"/>
    </edge>
    <edge id=":nt12_8" function="internal">
        <lane id=":nt12_8_0" index="0" speed="9.26" length="10.42" shape="276.60,464.60 275.85,469.85 273.60,473.60 272.96,473.98"/>
    </edge>
    <edge id=":nt12_13" function="internal">
        <lane id=":nt12_13_0" index="0" speed="9.26" length="8.93" shape="272.96,473.98 269.85,475.85 264.60,476.60"/>
    </edge>
    <edge id=":nt12_9" function="internal">
        <lane id=":nt12_9_0" index="0" speed="6.51" length="9.03" shape="264.60,470.20 267.05,469.85 268.80,468.80 269.85,467.05 270.20,464.60"/>
    </edge>
    <edge id=":nt12_10" function="internal">
        <lane id=":nt12_10_0" index="0" speed="20.00" length="20.80" shape="264.60,470.20 285.40,470.20"/>
    </edge>
    <edge id=":nt12_11" function="internal">
        <lane id=":nt12_11_0" index="0" speed="9.26" length="19.35" shape="264.60,473.40 269.85,474.15 273.60,476.40 275.85,480.15 276.60,485.40"/>
    </edge>
    <edge id=":nt13_0" function="internal">
        <lane id=":nt13_0_0" index="0" speed="6.51" length="9.03" shape="470.20,485.40 469.85,482.95 468.80,481.20 467.05,480.15 464.60,479.80"/>
    </edge>
    <edge id=":nt13_1" function="internal">
        <lane id=":nt13_1_0" index="0" speed="20.00" length="20.80" shape="470.20,485.40 470.20,464.60"/>
    </edge>
    <edge id=":nt13_2" function="internal">
        <lane id=":nt13_2_0" index="0" speed="9.26" length="10.42" shape="473.40,485.40 474.15,480.15 476.40,476.40 477.04,476.02"/>
    </edge>
    <edge id=":nt13_12" function="internal">
        <lane id=":nt13_12_0" index="0" speed="9.26" length="8.93" shape="477.04,476.02 480.15,474.15 485.40,473.40"/>
    </edge>
    <edge id=":nt13_3" function="internal">
        <lane id=":nt13_3_0" index="0" speed="6.51" length="9.03" shape="485.40,479.80 482.95,480.15 481.20,481.20 480.15,482.95 479.80,485.40"/>
    </edge>
    <edge id=":nt13_4" function="internal">
        <lane id=":nt13_4_0" index="0" speed="20.00" length="20.80" shape="485.40,479.80 464.60,479.80"/>
    </edge>
    <edge id=":nt13_5" function="internal">
        <lane id=":nt13_5_0" index="0" speed="9.26" length="19.35" shape="485.40,476.60 480.15,475.85 476.40,473.60 474.15,469.85 473.40,464.60"/>
    </edge>
    <edge id=":nt13_6" function="internal">
        <lane id=":nt13_6_0" index="0" speed="6.51" length="9.03" shape="479.80,464.60 480.15,467.05 481.20,468.80 482.95,469.85 485.40,470.20"/>
    </edge>
    <edge id=":nt13_7" function="internal">
        <lane id=":nt13_7_0" index="0" speed="20.00" length="20.80" shape="479.80,464.60 479.80,485.40"/>
    </edge>
    <edge id=":nt13_8" function="internal">
        <lane id=":nt13_8_0" index="0" speed="9.26" length="10.42" shape="476.60,464.60 475.85,469.85 473.60,473.60 472.96,473.98"/>
    </edge>
    <edge id=":nt13_13" function="internal">
        <lane id=":nt13_13_0" index="0" speed="9.26" length="8.93" shape="472.96,473.98 469.85,475.85 464.60,476.60"/>
    </edge>
    <edge id=":nt13_9" function="internal">
        <lane id=":nt13_9_0" index="0" speed="6.51" length="9.03" shape="464.60,470.20 467.05,469.85 468.80,468.80 469.85,467.05 470.20,464.60"/>
    </edge>
    <edge id=":nt13_10" function="internal">
        <lane id=":nt13_10_0" index="0" speed="20.00" length="20.80" shape="464.60,470.20 485.40,470.20"/>
    </edge>
    <edge id=":nt13_11" function="internal">
        <lane id=":nt13_11_0" index="0" speed="9.26" length="19.35" shape="464.60,473.40 469.85,474.15 473.60,476.40 475.85,480.15 476.60,485.40"/>
    </edge>
    <edge id=":nt14_0" function="internal">
        <lane id=":nt14_0_0" index="0" speed="6.51" length="9.03" shape="670.20,485.40 669.85,482.95 668.80,481.20 667.05,480.15 664.60,479.80"/>
    </edge>
    <edge id=":nt14_1" function="internal">
        <lane id=":nt14_1_0" index="0" speed="20.00" length="20.80" shape="670.20,485.40 670.20,464.60"/>
    </edge>
    <edge id=":nt14_2" function="internal">
        <lane id=":nt14_2_0" index="0" speed="9.26" length="10.42" shape="673.40,485.40 674.15,480.15 676.40,476.40 677.04,476.02"/>
    </edge>
    <edge id=":nt14_12" function="internal">
        <lane id=":nt14_12_0" index="0" speed="9.26" length="8.93" shape="677.04,476.02 680.15,474.15 685.40,473.40"/>
    </edge>
    <edge id=":nt14_3" function="internal">
        <lane id=":nt14_3_0" index="0" speed="6.51" length="9.03" shape="685.40,479.80 682.95,480.15 681.20,481.20 680.15,482.95 679.80,485.40"/>
    </edge>
    <edge id=":nt14_4" function="internal">
        <lane id=":nt14_4_0" index="0" speed="20.00" length="20.80" shape="685.40,479.80 664.60,479.80"/>
    </edge>
    <edge id=":nt14_5" function="internal">
        <lane id=":nt14_5_0" index="0" speed="9.26" length="19.35" shape="685.40,476.60 680.15,475.85 676.40,473.60 674.15,469.85 673.40,464.60"/>
    </edge>
    <edge id=":nt14_6" function="internal">
        <lane id=":nt14_6_0" index="0" speed="6.51" length="9.03" shape="679.80,464.60 680.15,467.05 681.20,468.80 682.95,469.85 685.40,470.20"/>
    </edge>
    <edge id=":nt14_7" function="internal">
        <lane id=":nt14_7_0" index="0" speed="20.00" length="20.80" shape="679.80,464.60 679.80,485.40"/>
    </edge>
    <edge id=":nt14_8" function="internal">
        <lane id=":nt14_8_0" index="0" speed="9.26" length="10.42" shape="676.60,464.60 675.85,469.85 673.60,473.60 672.96,473.98"/>
    </edge>
    <edge id=":nt14_13" function="internal">
        <lane id=":nt14_13_0" index="0" speed="9.26" length="8.93" shape="672.96,473.98 669.85,475.85 664.60,476.60"/>
    </edge>
    <edge id=":nt14_9" function="internal">
        <lane id=":nt14_9_0" index="0" speed="6.51" length="9.03" shape="664.60,470.20 667.05,469.85 668.80,468.80 669.85,467.05 670.20,464.60"/>
    </edge>
    <edge id=":nt14_10" function="internal">
        <lane id=":nt14_10_0" index="0" speed="20.00" length="20.80" shape="664.60,470.20 685.40,470.20"/>
    </edge>
    <edge id=":nt14_11" function="internal">
        <lane id=":nt14_11_0" index="0" speed="9.26" length="19.35" shape="664.60,473.40 669.85,474.15 673.60,476.40 675.85,480.15 676.60,485.40"/>
    </edge>
    <edge id=":nt15_0" function="internal">
        <lane id=":nt15_0_0" index="0" speed="6.51" length="9.03" shape="870.20,485.40 869.85,482.95 868.80,481.20 867.05,480.15 864.60,479.80"/>
    </edge>
    <edge id=":nt15_1" function="internal">
        <lane id=":nt15_1_0" index="0" speed="20.00" length="20.80" shape="870.20,485.40 870.20,464.60"/>
    </edge>
    <edge id=":nt15_2" function="internal">
        <lane id=":nt15_2_0" index="0" speed="9.26" length="10.42" shape="873.40,485.40 874.15,480.15 876.40,476.40 877.04,476.02"/>
    </edge>
    <edge id=":nt15_12" function="internal">
        <lane id=":nt15_12_0" index="0" speed="9.26" length="8.93" shape="877.04,476.02 880.15,474.15 885.40,473.40"/>
    </edge>
    <edge id=":nt15_3" function="internal">
        <lane id=":nt15_3_0" index="0" speed="6.51" length="9.03" shape="885.40,479.80 882.95,480.15 881.20,481.20 880.15,482.95 879.80,485.40"/>
    </edge>
    <edge id=":nt15_4" function="internal">
        <lane id=":nt15_4_0" index="0" speed="20.00" length="20.80" shape="885.40,479.80 864.60,479.80"/>
    </edge>
    <edge id=":nt15_5" function="internal">
        <lane id=":nt15_5_0" index="0" speed="9.26" length="19.35" shape="885.40,476.60 880.15,475.85 876.40,473.60 874.15,469.85 873.40,464.60"/>
    </edge>
    <edge id=":nt15_6" function="internal">
        <lane id=":nt15_6_0" index="0" speed="6.51" length="9.03" shape="879.80,464.60 880.15,467.05 881.20,468.80 882.95,469.85 885.40,470.20"/>
    </edge>
    <edge id=":nt15_7" function="internal">
        <lane id=":nt15_7_0" index="0" speed="20.00" length="20.80" shape="879.80,464.60 879.80,485.40"/>
    </edge>
    <edge id=":nt15_8" function="internal">
        <lane id=":nt15_8_0" index="0" speed="9.26" length="10.42" shape="876.60,464.60 875.85,469.85 873.60,473.60 872.96,473.98"/>
    </edge>
    <edge id=":nt15_13" function="internal">
        <lane id=":nt15_13_0" index="0" speed="9.26" length="8.93" shape="872.96,473.98 869.85,475.85 864.60,476.60"/>
    </edge>
    <edge id=":nt15_9" function="internal">
        <lane id=":nt15_9_0" index="0" speed="6.51" length="9.03" shape="864.60,470.20 867.05,469.85 868.80,468.80 869.85,467.05 870.20,464.60"/>
    </edge>
    <edge id=":nt15_10" function="internal">
        <lane id=":nt15_10_0" index="0" speed="20.00" length="20.80" shape="864.60,470.20 885.40,470.20"/>
    </edge>
    <edge id=":nt15_11" function="internal">
        <lane id=":nt15_11_0" index="0" speed="9.26" length="19.35" shape="864.60,473.40 869.85,474.15 873.60,476.40 875.85,480.15 876.60,485.40"/>
    </edge>
    <edge id=":nt16_0" function="internal">
        <lane id=":nt16_0_0" index="0" speed="6.51" length="9.03" shape="70.20,685.40 69.85,682.95 68.80,681.20 67.05,680.15 64.60,679.80"/>
    </edge>
    <edge id=":nt16_1" function="internal">
        <lane id=":nt16_1_0" index="0" speed="20.00" length="20.80" shape="70.20,685.40 70.20,664.60"/>
    </edge>
    <edge id=":nt16_2" function="internal">
        <lane id=":nt16_2_0" index="0" speed="9.26" length="10.42" shape="73.40,685.40 74.15,680.15 76.40,676.40 77.04,676.02"/>
    </edge>
    <edge id=":nt16_12" function="internal">
        <lane id=":nt16_12_0" index="0" speed="9.26" length="8.93" shape="77.04,676.02 80.15,674.15 85.40,673.40"/>
    </edge>
    <edge id=":nt16_3" function="internal">
        <lane id=":nt16_3_0" index="0" speed="6.51" length="9.03" shape="85.40,679.80 82.95,680.15 81.20,681.20 80.15,682.95 79.80,685.40"/>
    </edge>
    <edge id=":nt16_4" function="internal">
        <lane id=":nt16_4_0" index="0" speed="20.00" length="20.80" shape="85.40,679.80 64.60,679.80"/>
    </edge>
    <edge id=":nt16_5" function="internal">
        <lane id=":nt16_5_0" index="0" speed="9.26" length="19.35" shape="85.40,676.60 80.15,675.85 76.40,673.60 74.15,669.85 73.40,664.60"/>
    </edge>
    <edge id=":nt16_6" function="internal">
        <lane id=":nt16_6_0" index="0" speed="6.51" length="9.03" shape="79.80,664.60 80.15,667.05 81.20,668.80 82.95,669.85 85.40,670.20"/>
    </edge>
    <edge id=":nt16_7" function="internal">
        <lane id=":nt16_7_0" index="0" speed="20.00" length="20.80" shape="79.80,664.60 79.80,685.40"/>
    </edge>
    <edge id=":nt16_8" function="internal">
        <lane id=":nt16_8_0" index="0" speed="9.26" length="10.42" shape="76.60,664.60 75.85,669.85 73.60,673.60 72.96,673.98"/>
    </edge>
    <edge id=":nt16_13" function="internal">
        <lane id=":nt16_13_0" index="0" speed="9.26" length="8.93" shape="72.96,673.98 69.85,675.85 64.60,676.60"/>
    </edge>
    <edge id=":nt16_9" function="internal">
        <lane id=":nt16_9_0" index="0" speed="6.51" length="9.03" shape="64.60,670.20 67.05,669.85 68.80,668.80 69.85,667.05 70.20,664.60"/>
    </edge>
    <edge id=":nt16_10" function="internal">
        <lane id=":nt16_10_0" index="0" speed="20.00" length="20.80" shape="64.60,670.20 85.40,670.20"/>
    </edge>
    <edge id=":nt16_11" function="internal">
        <lane id=":nt16_11_0" index="0" speed="9.26" length="19.35" shape="64.60,673.40 69.85,674.15 73.60,676.40 75.85,680.15 76.60,685.40"/>
    </edge>
    <edge id=":nt17_0" function="internal">
        <lane id=":nt17_0_0" index="0" speed="6.51" length="9.03" shape="270.20,685.40 269.85,682.95 268.80,681.20 267.05,680.15 264.60,679.80"/>
    </edge>
    <edge id=":nt17_1" function="internal">
        <lane id=":nt17_1_0" index="0" speed="20.00" length="20.80" shape="270.20,685.40 270.20,664.60"/>
    </edge>
    <edge id=":nt17_2" function="internal">
        <lane id=":nt17_2_0" index="0" speed="9.26" length="10.42" shape="273.40,685.40 274.15,680.15 276.40,676.40 277.04,676.02"/>
    </edge>
    <edge id=":nt17_12" function="internal">
        <lane id=":nt17_12_0" index="0" speed="9.26" length="8.93" shape="277.04,676.02 280.15,674.15 285.40,673.40"/>
    </edge>
    <edge id=":nt17_3" function="internal">
        <lane id=":nt17_3_0" index="0" speed="6.51" length="9.03" shape="285.40,679.80 282.95,680.15 281.20,681.20 280.15,682.95 279.80,685.40"/>
    </edge>
    <edge id=":nt17_4" function="internal">
        <lane id=":nt17_4_0" index="0" speed="20.00" length="20.80" shape="285.40,679.80 264.60,679.80"/>
    </edge>
    <edge id=":nt17_5" function="internal">
        <lane id=":nt17_5_0" index="0" speed="9.26" length="19.35" shape="285.40,676.60 280.15,675.85 276.40,673.60 274.15,669.85 273.40,664.60"/>
    </edge>
    <edge id=":nt17_6" function="internal">
        <lane id=":nt17_6_0" index="0" speed="6.51" length="9.03" shape="279.80,664.60 280.15,667.05 281.20,668.80 282.95,669.85 285.40,670.20"/>
    </edge>
    <edge id=":nt17_7" function="internal">
        <lane id=":nt17_7_0" index="0" speed="20.00" length="20.80" shape="279.80,664.60 279.80,685.40"/>
    </edge>
    <edge id=":nt17_8" function="internal">
        <lane id=":nt17_8_0" index="0" speed="9.26" length="10.42" shape="276.60,664.60 275.85,669.85 273.60,673.60 272.96,673.98"/>
    </edge>
    <edge id=":nt17_13" function="internal">
        <lane id=":nt17_13_0" index="0" speed="9.26" length="8.93" shape="272.96,673.98 269.85,675.85 264.60,676.60"/>
    </edge>
    <edge id=":nt17_9" function="internal">
        <lane id=":nt17_9_0" index="0" speed="6.51" length="9.03" shape="264.60,670.20 267.05,669.85 268.80,668.80 269.85,667.05 270.20,664.60"/>
    </edge>
    <edge id=":nt17_10" function="internal">
        <lane id=":nt17_10_0" index="0" speed="20.00" length="20.80" shape="264.60,670.20 285.40,670.20"/>
    </edge>
    <edge id=":nt17_11" function="internal">
        <lane id=":nt17_11_0" index="0" speed="9.26" length="19.35" shape="264.60,673.40 269.85,674.15 273.60,676.40 275.85,680.15 276.60,685.40"/>
    </edge>
    <edge id=":nt18_0" function="internal">
        <lane id=":nt18_0_0" index="0" speed="6.51" length="9.03" shape="470.20,685.40 469.85,682.95 468.80,681.20 467.05,680.15 464.60,679.80"/>
    </edge>
    <edge id=":nt18_1" function="internal">
        <lane id=":nt18_1_0" index="0" speed="20.00" length="20.80" shape="470.20,685.40 470.20,664.60"/>
    </edge>
    <edge id=":nt18_2" function="internal">
        <lane id=":nt18_2_0" index="0" speed="9.26" length="10.42" shape="473.40,685.40 474.15,680.15 476.40,676.40 477.04,676.02"/>
    </edge>
    <edge id=":nt18_12" function="internal">
        <lane id=":nt18_12_0" index="0" speed="9.26" length="8.93" shape="477.04,676.02 480.15,674.15 485.40,673.40"/>
    </edge>
    <edge id=":nt18_3" function="internal">
        <lane id=":nt18_3_0" index="0" speed="6.51" length="9.03" shape="485.40,679.80 482.95,680.15 481.20,681.20 480.15,682.95 479.80,685.40"/>
    </edge>
    <edge id=":nt18_4" function="internal">
        <lane id=":nt18_4_0" index="0" speed="20.00" length="20.80" shape="485.40,679.80 464.60,679.80"/>
    </edge>
    <edge id=":nt18_5" function="internal">
        <lane id=":nt18_5_0" index="0" speed="9.26" length="19.35" shape="485.40,676.60 480.15,675.85 476.40,673.60 474.15,669.85 473.40,664.60"/>
    </edge>
    <edge id=":nt18_6" function="internal">
        <lane id=":nt18_6_0" index="0" speed="6.51" length="9.03" shape="479.80,664.60 480.15,667.05 481.20,668.80 482.95,669.85 485.40,670.20"/>
    </edge>
    <edge id=":nt18_7" function="internal">
        <lane id=":nt18_7_0" index="0" speed="20.00" length="20.80" shape="479.80,664.60 479.80,685.40"/>
    </edge>
    <edge id=":nt18_8" function="internal">
        <lane id=":nt18_8_0" index="0" speed="9.26" length="10.42" shape="476.60,664.60 475.85,669.85 473.60,673.60 472.96,673.98"/>
    </edge>