<?xml version="1.0" encoding="UTF-8"?>

<!-- generated on 2022-10-01 04:29:37 by Eclipse SUMO netconvert Version 1.14.0
<configuration xmlns:xsi="http://www.w3.org/2001/XMLSchema-instance" xsi:noNamespaceSchemaLocation="http://sumo.dlr.de/xsd/netconvertConfiguration.xsd">

    <input>
        <node-files value="exp.nod.xml"/>
        <edge-files value="exp.edg.xml"/>
        <connection-files value="exp.con.xml"/>
        <tllogic-files value="exp.tll.xml"/>
        <type-files value="exp.typ.xml"/>
    </input>

    <output>
        <output-file value="exp.net.xml"/>
    </output>

</configuration>
-->

<net version="1.9" junctionCornerDetail="5" limitTurnSpeed="5.50" xmlns:xsi="http://www.w3.org/2001/XMLSchema-instance" xsi:noNamespaceSchemaLocation="http://sumo.dlr.de/xsd/net_file.xsd">

    <location netOffset="75.00,75.00" convBoundary="0.00,0.00,950.00,750.00" origBoundary="-75.00,-75.00,875.00,675.00" projParameter="!"/>

    <type id="a" priority="1" numLanes="2" speed="20.00"/>
    <type id="b" priority="1" numLanes="2" speed="20.00"/>

    <edge id=":np1_0" function="internal">
        <lane id=":np1_0_0" index="0" speed="3.65" length="4.67" shape="73.40,0.00 74.20,-1.20 75.00,-1.60 75.80,-1.20 76.60,0.00"/>
    </edge>
    <edge id=":np10_0" function="internal">
        <lane id=":np10_0_0" index="0" speed="3.65" length="4.67" shape="950.00,673.40 951.20,674.20 951.60,675.00 951.20,675.80 950.00,676.60"/>
    </edge>
    <edge id=":np11_0" function="internal">
        <lane id=":np11_0_0" index="0" speed="3.65" length="4.67" shape="876.60,750.00 875.80,751.20 875.00,751.60 874.20,751.20 873.40,750.00"/>
    </edge>
    <edge id=":np12_0" function="internal">
        <lane id=":np12_0_0" index="0" speed="3.65" length="4.67" shape="676.60,750.00 675.80,751.20 675.00,751.60 674.20,751.20 673.40,750.00"/>
    </edge>
    <edge id=":np13_0" function="internal">
        <lane id=":np13_0_0" index="0" speed="3.65" length="4.67" shape="476.60,750.00 475.80,751.20 475.00,751.60 474.20,751.20 473.40,750.00"/>
    </edge>
    <edge id=":np14_0" function="internal">
        <lane id=":np14_0_0" index="0" speed="3.65" length="4.67" shape="276.60,750.00 275.80,751.20 275.00,751.60 274.20,751.20 273.40,750.00"/>
    </edge>
    <edge id=":np15_0" function="internal">
        <lane id=":np15_0_0" index="0" speed="3.65" length="4.67" shape="76.60,750.00 75.80,751.20 75.00,751.60 74.20,751.20 73.40,750.00"/>
    </edge>
    <edge id=":np16_0" function="internal">
        <lane id=":np16_0_0" index="0" speed="3.65" length="4.67" shape="0.00,676.60 -1.20,675.80 -1.60,675.00 -1.20,674.20 0.00,673.40"/>
    </edge>
    <edge id=":np17_0" function="internal">
        <lane id=":np17_0_0" index="0" speed="3.65" length="4.67" shape="0.00,526.60 -1.20,525.80 -1.60,525.00 -1.20,524.20 0.00,523.40"/>
    </edge>
    <edge id=":np18_0" function="internal">
        <lane id=":np18_0_0" index="0" speed="3.65" length="4.67" shape="0.00,376.60 -1.20,375.80 -1.60,375.00 -1.20,374.20 0.00,373.40"/>
    </edge>
    <edge id=":np19_0" function="internal">
        <lane id=":np19_0_0" index="0" speed="3.65" length="4.67" shape="0.00,226.60 -1.20,225.80 -1.60,225.00 -1.20,224.20 0.00,223.40"/>
    </edge>
    <edge id=":np2_0" function="internal">
        <lane id=":np2_0_0" index="0" speed="3.65" length="4.67" shape="273.40,0.00 274.20,-1.20 275.00,-1.60 275.80,-1.20 276.60,0.00"/>
    </edge>
    <edge id=":np20_0" function="internal">
        <lane id=":np20_0_0" index="0" speed="3.65" length="4.67" shape="0.00,76.60 -1.20,75.80 -1.60,75.00 -1.20,74.20 0.00,73.40"/>
    </edge>
    <edge id=":np3_0" function="internal">
        <lane id=":np3_0_0" index="0" speed="3.65" length="4.67" shape="473.40,0.00 474.20,-1.20 475.00,-1.60 475.80,-1.20 476.60,0.00"/>
    </edge>
    <edge id=":np4_0" function="internal">
        <lane id=":np4_0_0" index="0" speed="3.65" length="4.67" shape="673.40,0.00 674.20,-1.20 675.00,-1.60 675.80,-1.20 676.60,0.00"/>
    </edge>
    <edge id=":np5_0" function="internal">
        <lane id=":np5_0_0" index="0" speed="3.65" length="4.67" shape="873.40,0.00 874.20,-1.20 875.00,-1.60 875.80,-1.20 876.60,0.00"/>
    </edge>
    <edge id=":np6_0" function="internal">
        <lane id=":np6_0_0" index="0" speed="3.65" length="4.67" shape="950.00,73.40 951.20,74.20 951.60,75.00 951.20,75.80 950.00,76.60"/>
    </edge>
    <edge id=":np7_0" function="internal">
        <lane id=":np7_0_0" index="0" speed="3.65" length="4.67" shape="950.00,223.40 951.20,224.20 951.60,225.00 951.20,225.80 950.00,226.60"/>
    </edge>
    <edge id=":np8_0" function="internal">
        <lane id=":np8_0_0" index="0" speed="3.65" length="4.67" shape="950.00,373.40 951.20,374.20 951.60,375.00 951.20,375.80 950.00,376.60"/>
    </edge>
    <edge id=":np9_0" function="internal">
        <lane id=":np9_0_0" index="0" speed="3.65" length="4.67" shape="950.00,523.40 951.20,524.20 951.60,525.00 951.20,525.80 950.00,526.60"/>
    </edge>
    <edge id=":nt1_0" function="internal">
        <lane id=":nt1_0_0" index="0" speed="6.51" length="9.03" shape="70.20,85.40 69.85,82.95 68.80,81.20 67.05,80.15 64.60,79.80"/>
    </edge>
    <edge id=":nt1_1" function="internal">
        <lane id=":nt1_1_0" index="0" speed="20.00" length="20.80" shape="70.20,85.40 70.20,64.60"/>
        <lane id=":nt1_1_1" index="1" speed="20.00" length="20.80" shape="73.40,85.40 73.40,64.60"/>
    </edge>
    <edge id=":nt1_3" function="internal">
        <lane id=":nt1_3_0" index="0" speed="9.26" length="5.01" shape="73.40,85.40 74.11,80.44"/>
    </edge>
    <edge id=":nt1_16" function="internal">
        <lane id=":nt1_16_0" index="0" speed="9.26" length="14.34" shape="74.11,80.44 74.15,80.15 76.40,76.40 80.15,74.15 85.40,73.40"/>
    </edge>
    <edge id=":nt1_4" function="internal">
        <lane id=":nt1_4_0" index="0" speed="6.51" length="9.03" shape="85.40,79.80 82.95,80.15 81.20,81.20 80.15,82.95 79.80,85.40"/>
    </edge>
    <edge id=":nt1_5" function="internal">
        <lane id=":nt1_5_0" index="0" speed="20.00" length="20.80" shape="85.40,79.80 64.60,79.80"/>
        <lane id=":nt1_5_1" index="1" speed="20.00" length="20.80" shape="85.40,76.60 64.60,76.60"/>
    </edge>
    <edge id=":nt1_7" function="internal">
        <lane id=":nt1_7_0" index="0" speed="9.26" length="5.01" shape="85.40,76.60 80.44,75.89"/>
    </edge>
    <edge id=":nt1_17" function="internal">
        <lane id=":nt1_17_0" index="0" speed="9.26" length="14.34" shape="80.44,75.89 80.15,75.85 76.40,73.60 74.15,69.85 73.40,64.60"/>
    </edge>
    <edge id=":nt1_8" function="internal">
        <lane id=":nt1_8_0" index="0" speed="6.51" length="9.03" shape="79.80,64.60 80.15,67.05 81.20,68.80 82.95,69.85 85.40,70.20"/>
    </edge>
    <edge id=":nt1_9" function="internal">
        <lane id=":nt1_9_0" index="0" speed="20.00" length="20.80" shape="79.80,64.60 79.80,85.40"/>
        <lane id=":nt1_9_1" index="1" speed="20.00" length="20.80" shape="76.60,64.60 76.60,85.40"/>
    </edge>
    <edge id=":nt1_11" function="internal">
        <lane id=":nt1_11_0" index="0" speed="9.26" length="5.01" shape="76.60,64.60 75.89,69.56"/>
    </edge>
    <edge id=":nt1_18" function="internal">
        <lane id=":nt1_18_0" index="0" speed="9.26" length="14.34" shape="75.89,69.56 75.85,69.85 73.60,73.60 69.85,75.85 64.60,76.60"/>
    </edge>
    <edge id=":nt1_12" function="internal">
        <lane id=":nt1_12_0" index="0" speed="6.51" length="9.03" shape="64.60,70.20 67.05,69.85 68.80,68.80 69.85,67.05 70.20,64.60"/>
    </edge>
    <edge id=":nt1_13" function="internal">
        <lane id=":nt1_13_0" index="0" speed="20.00" length="20.80" shape="64.60,70.20 85.40,70.20"/>
        <lane id=":nt1_13_1" index="1" speed="20.00" length="20.80" shape="64.60,73.40 85.40,73.40"/>
    </edge>
    <edge id=":nt1_15" function="internal">
        <lane id=":nt1_15_0" index="0" speed="9.26" length="5.01" shape="64.60,73.40 69.56,74.11"/>
    </edge>
    <edge id=":nt1_19" function="internal">
        <lane id=":nt1_19_0" index="0" speed="9.26" length="14.34" shape="69.56,74.11 69.85,74.15 73.60,76.40 75.85,80.15 76.60,85.40"/>
    </edge>
    <edge id=":nt10_0" function="internal">
        <lane id=":nt10_0_0" index="0" speed="6.51" length="9.03" shape="870.20,235.40 869.85,232.95 868.80,231.20 867.05,230.15 864.60,229.80"/>
    </edge>
    <edge id=":nt10_1" function="internal">
        <lane id=":nt10_1_0" index="0" speed="20.00" length="20.80" shape="870.20,235.40 870.20,214.60"/>
        <lane id=":nt10_1_1" index="1" speed="20.00" length="20.80" shape="873.40,235.40 873.40,214.60"/>
    </edge>
    <edge id=":nt10_3" function="internal">
        <lane id=":nt10_3_0" index="0" speed="9.26" length="5.01" shape="873.40,235.40 874.11,230.44"/>
    </edge>
    <edge id=":nt10_16" function="internal">
        <lane id=":nt10_16_0" index="0" speed="9.26" length="14.34" shape="874.11,230.44 874.15,230.15 876.40,226.40 880.15,224.15 885.40,223.40"/>
    </edge>
    <edge id=":nt10_4" function="internal">
        <lane id=":nt10_4_0" index="0" speed="6.51" length="9.03" shape="885.40,229.80 882.95,230.15 881.20,231.20 880.15,232.95 879.80,235.40"/>
    </edge>
    <edge id=":nt10_5" function="internal">
        <lane id=":nt10_5_0" index="0" speed="20.00" length="20.80" shape="885.40,229.80 864.60,229.80"/>
        <lane id=":nt10_5_1" index="1" speed="20.00" length="20.80" shape="885.40,226.60 864.60,226.60"/>
    </edge>
    <edge id=":nt10_7" function="internal">
        <lane id=":nt10_7_0" index="0" speed="9.26" length="5.01" shape="885.40,226.60 880.44,225.89"/>
    </edge>
    <edge id=":nt10_17" function="internal">
        <lane id=":nt10_17_0" index="0" speed="9.26" length="14.34" shape="880.44,225.89 880.15,225.85 876.40,223.60 874.15,219.85 873.40,214.60"/>
    </edge>
    <edge id=":nt10_8" function="internal">
        <lane id=":nt10_8_0" index="0" speed="6.51" length="9.03" shape="879.80,214.60 880.15,217.05 881.20,218.80 882.95,219.85 885.40,220.20"/>
    </edge>
    <edge id=":nt10_9" function="internal">
        <lane id=":nt10_9_0" index="0" speed="20.00" length="20.80" shape="879.80,214.60 879.80,235.40"/>
        <lane id=":nt10_9_1" index="1" speed="20.00" length="20.80" shape="876.60,214.60 876.60,235.40"/>
    </edge>
    <edge id=":nt10_11" function="internal">
        <lane id=":nt10_11_0" index="0" speed="9.26" length="5.01" shape="876.60,214.60 875.89,219.56"/>
    </edge>
    <edge id=":nt10_18" function="internal">
        <lane id=":nt10_18_0" index="0" speed="9.26" length="14.34" shape="875.89,219.56 875.85,219.85 873.60,223.60 869.85,225.85 864.60,226.60"/>
    </edge>
    <edge id=":nt10_12" function="internal">
        <lane id=":nt10_12_0" index="0" speed="6.51" length="9.03" shape="864.60,220.20 867.05,219.85 868.80,218.80 869.85,217.05 870.20,214.60"/>
    </edge>
    <edge id=":nt10_13" function="internal">
        <lane id=":nt10_13_0" index="0" speed="20.00" length="20.80" shape="864.60,220.20 885.40,220.20"/>
        <lane id=":nt10_13_1" index="1" speed="20.00" length="20.80" shape="864.60,223.40 885.40,223.40"/>
    </edge>
    <edge id=":nt10_15" function="internal">
        <lane id=":nt10_15_0" index="0" speed="9.26" length="5.01" shape="864.60,223.40 869.56,224.11"/>
    </edge>
    <edge id=":nt10_19" function="internal">
        <lane id=":nt10_19_0" index="0" speed="9.26" length="14.34" shape="869.56,224.11 869.85,224.15 873.60,226.40 875.85,230.15 876.60,235.40"/>
    </edge>
    <edge id=":nt11_0" function="internal">
        <lane id=":nt11_0_0" index="0" speed="6.51" length="9.03" shape="70.20,385.40 69.85,382.95 68.80,381.20 67.05,380.15 64.60,379.80"/>
    </edge>
    <edge id=":nt11_1" function="internal">
        <lane id=":nt11_1_0" index="0" speed="20.00" length="20.80" shape="70.20,385.40 70.20,364.60"/>
        <lane id=":nt11_1_1" index="1" speed="20.00" length="20.80" shape="73.40,385.40 73.40,364.60"/>
    </edge>
    <edge id=":nt11_3" function="internal">
        <lane id=":nt11_3_0" index="0" speed="9.26" length="5.01" shape="73.40,385.40 74.11,380.44"/>
    </edge>
    <edge id=":nt11_16" function="internal">
        <lane id=":nt11_16_0" index="0" speed="9.26" length="14.34" shape="74.11,380.44 74.15,380.15 76.40,376.40 80.15,374.15 85.40,373.40"/>
    </edge>
    <edge id=":nt11_4" function="internal">
        <lane id=":nt11_4_0" index="0" speed="6.51" length="9.03" shape="85.40,379.80 82.95,380.15 81.20,381.20 80.15,382.95 79.80,385.40"/>
    </edge>
    <edge id=":nt11_5" function="internal">
        <lane id=":nt11_5_0" index="0" speed="20.00" length="20.80" shape="85.40,379.80 64.60,379.80"/>
        <lane id=":nt11_5_1" index="1" speed="20.00" length="20.80" shape="85.40,376.60 64.60,376.60"/>
    </edge>
    <edge id=":nt11_7" function="internal">
        <lane id=":nt11_7_0" index="0" speed="9.26" length="5.01" shape="85.40,376.60 80.44,375.89"/>
    </edge>
    <edge id=":nt11_17" function="internal">
        <lane id=":nt11_17_0" index="0" speed="9.26" length="14.34" shape="80.44,375.89 80.15,375.85 76.40,373.60 74.15,369.85 73.40,364.60"/>
    </edge>
    <edge id=":nt11_8" function="internal">
        <lane id=":nt11_8_0" index="0" speed="6.51" length="9.03" shape="79.80,364.60 80.15,367.05 81.20,368.80 82.95,369.85 85.40,370.20"/>
    </edge>
    <edge id=":nt11_9" function="internal">
        <lane id=":nt11_9_0" index="0" speed="20.00" length="20.80" shape="79.80,364.60 79.80,385.40"/>
        <lane id=":nt11_9_1" index="1" speed="20.00" length="20.80" shape="76.60,364.60 76.60,385.40"/>
    </edge>
    <edge id=":nt11_11" function="internal">
        <lane id=":nt11_11_0" index="0" speed="9.26" length="5.01" shape="76.60,364.60 75.89,369.56"/>
    </edge>
    <edge id=":nt11_18" function="internal">
        <lane id=":nt11_18_0" index="0" speed="9.26" length="14.34" shape="75.89,369.56 75.85,369.85 73.60,373.60 69.85,375.85 64.60,376.60"/>
    </edge>
    <edge id=":nt11_12" function="internal">
        <lane id=":nt11_12_0" index="0" speed="6.51" length="9.03" shape="64.60,370.20 67.05,369.85 68.80,368.80 69.85,367.05 70.20,364.60"/>
    </edge>
    <edge id=":nt11_13" function="internal">
        <lane id=":nt11_13_0" index="0" speed="20.00" length="20.80" shape="64.60,370.20 85.40,370.20"/>
        <lane id=":nt11_13_1" index="1" speed="20.00" length="20.80" shape="64.60,373.40 85.40,373.40"/>
    </edge>
    <edge id=":nt11_15" function="internal">
        <lane id=":nt11_15_0" index="0" speed="9.26" length="5.01" shape="64.60,373.40 69.56,374.11"/>
    </edge>
    <edge id=":nt11_19" function="internal">
        <lane id=":nt11_19_0" index="0" speed="9.26" length="14.34" shape="69.56,374.11 69.85,374.15 73.60,376.40 75.85,380.15 76.60,385.40"/>
    </edge>
    <edge id=":nt12_0" function="internal">
        <lane id=":nt12_0_0" index="0" speed="6.51" length="9.03" shape="270.20,385.40 269.85,382.95 268.80,381.20 267.05,380.15 264.60,379.80"/>
    </edge>
    <edge id=":nt12_1" function="internal">
        <lane id=":nt12_1_0" index="0" speed="20.00" length="20.80" shape="270.20,385.40 270.20,364.60"/>
        <lane id=":nt12_1_1" index="1" speed="20.00" length="20.80" shape="273.40,385.40 273.40,364.60"/>
    </edge>
    <edge id=":nt12_3" function="internal">
        <lane id=":nt12_3_0" index="0" speed="9.26" length="5.01" shape="273.40,385.40 274.11,380.44"/>
    </edge>
    <edge id=":nt12_16" function="internal">
        <lane id=":nt12_16_0" index="0" speed="9.26" length="14.34" shape="274.11,380.44 274.15,380.15 276.40,376.40 280.15,374.15 285.40,373.40"/>
    </edge>
    <edge id=":nt12_4" function="internal">
        <lane id=":nt12_4_0" index="0" speed="6.51" length="9.03" shape="285.40,379.80 282.95,380.15 281.20,381.20 280.15,382.95 279.80,385.40"/>
    </edge>
    <edge id=":nt12_5" function="internal">
        <lane id=":nt12_5_0" index="0" speed="20.00" length="20.80" shape="285.40,379.80 264.60,379.80"/>
        <lane id=":nt12_5_1" index="1" speed="20.00" length="20.80" shape="285.40,376.60 264.60,376.60"/>
    </edge>
    <edge id=":nt12_7" function="internal">
        <lane id=":nt12_7_0" index="0" speed="9.26" length="5.01" shape="285.40,376.60 280.44,375.89"/>
    </edge>
    <edge id=":nt12_17" function="internal">
        <lane id=":nt12_17_0" index="0" speed="9.26" length="14.34" shape="280.44,375.89 280.15,375.85 276.40,373.60 274.15,369.85 273.40,364.60"/>
    </edge>
    <edge id=":nt12_8" function="internal">
        <lane id=":nt12_8_0" index="0" speed="6.51" length="9.03" shape="279.80,364.60 280.15,367.05 281.20,368.80 282.95,369.85 285.40,370.20"/>
    </edge>
    <edge id=":nt12_9" function="internal">
        <lane id=":nt12_9_0" index="0" speed="20.00" length="20.80" shape="279.80,364.60 279.80,385.40"/>
        <lane id=":nt12_9_1" index="1" speed="20.00" length="20.80" shape="276.60,364.60 276.60,385.40"/>
    </edge>
    <edge id=":nt12_11" function="internal">
        <lane id=":nt12_11_0" index="0" speed="9.26" length="5.01" shape="276.60,364.60 275.89,369.56"/>
    </edge>
    <edge id=":nt12_18" function="internal">
        <lane id=":nt12_18_0" index="0" speed="9.26" length="14.34" shape="275.89,369.56 275.85,369.85 273.60,373.60 269.85,375.85 264.60,376.60"/>
    </edge>
    <edge id=":nt12_12" function="internal">
        <lane id=":nt12_12_0" index="0" speed="6.51" length="9.03" shape="264.60,370.20 267.05,369.85 268.80,368.80 269.85,367.05 270.20,364.60"/>
    </edge>
    <edge id=":nt12_13" function="internal">
        <lane id=":nt12_13_0" index="0" speed="20.00" length="20.80" shape="264.60,370.20 285.40,370.20"/>
        <lane id=":nt12_13_1" index="1" speed="20.00" length="20.80" shape="264.60,373.40 285.40,373.40"/>
    </edge>
    <edge id=":nt12_15" function="internal">
        <lane id=":nt12_15_0" index="0" speed="9.26" length="5.01" shape="264.60,373.40 269.56,374.11"/>
    </edge>
    <edge id=":nt12_19" function="internal">
        <lane id=":nt12_19_0" index="0" speed="9.26" length="14.34" shape="269.56,374.11 269.85,374.15 273.60,376.40 275.85,380.15 276.60,385.40"/>
    </edge>
    <edge id=":nt13_0" function="internal">
        <lane id=":nt13_0_0" index="0" speed="6.51" length="9.03" shape="470.20,385.40 469.85,382.95 468.80,381.20 467.05,380.15 464.60,379.80"/>
    </edge>
    <edge id=":nt13_1" function="internal">
        <lane id=":nt13_1_0" index="0" speed="20.00" length="20.80" shape="470.20,385.40 470.20,364.60"/>
        <lane id=":nt13_1_1" index="1" speed="20.00" length="20.80" shape="473.40,385.40 473.40,364.60"/>
    </edge>
    <edge id=":nt13_3" function="internal">
        <lane id=":nt13_3_0" index="0" speed="9.26" length="5.01" shape="473.40,385.40 474.11,380.44"/>
    </edge>
    <edge id=":nt13_16" function="internal">
        <lane id=":nt13_16_0" index="0" speed="9.26" length="14.34" shape="474.11,380.44 474.15,380.15 476.40,376.40 480.15,374.15 485.40,373.40"/>
    </edge>
    <edge id=":nt13_4" function="internal">
        <lane id=":nt13_4_0" index="0" speed="6.51" length="9.03" shape="485.40,379.80 482.95,380.15 481.20,381.20 480.15,382.95 479.80,385.40"/>
    </edge>
    <edge id=":nt13_5" function="internal">
        <lane id=":nt13_5_0" index="0" speed="20.00" length="20.80" shape="485.40,379.80 464.60,379.80"/>
        <lane id=":nt13_5_1" index="1" speed="20.00" length="20.80" shape="485.40,376.60 464.60,376.60"/>
    </edge>
    <edge id=":nt13_7" function="internal">
        <lane id=":nt13_7_0" index="0" speed="9.26" length="5.01" shape="485.40,376.60 480.44,375.89"/>
    </edge>
    <edge id=":nt13_17" function="internal">
        <lane id=":nt13_17_0" index="0" speed="9.26" length="14.34" shape="480.44,375.89 480.15,375.85 476.40,373.60 474.15,369.85 473.40,364.60"/>
    </edge>
    <edge id=":nt13_8" function="internal">
        <lane id=":nt13_8_0" index="0" speed="6.51" length="9.03" shape="479.80,364.60 480.15,367.05 481.20,368.80 482.95,369.85 485.40,370.20"/>
    </edge>
    <edge id=":nt13_9" function="internal">
        <lane id=":nt13_9_0" index="0" speed="20.00" length="20.80" shape="479.80,364.60 479.80,385.40"/>
        <lane id=":nt13_9_1" index="1" speed="20.00" length="20.80" shape="476.60,364.60 476.60,385.40"/>
    </edge>
    <edge id=":nt13_11" function="internal">
        <lane id=":nt13_11_0" index="0" speed="9.26" length="5.01" shape="476.60,364.60 475.89,369.56"/>
    </edge>
    <edge id=":nt13_18" function="internal">
        <lane id=":nt13_18_0" index="0" speed="9.26" length="14.34" shape="475.89,369.56 475.85,369.85 473.60,373.60 469.85,375.85 464.60,376.60"/>
    </edge>
    <edge id=":nt13_12" function="internal">
        <lane id=":nt13_12_0" index="0" speed="6.51" length="9.03" shape="464.60,370.20 467.05,369.85 468.80,368.80 469.85,367.05 470.20,364.60"/>
    </edge>
    <edge id=":nt13_13" function="internal">
        <lane id=":nt13_13_0" index="0" speed="20.00" length="20.80" shape="464.60,370.20 485.40,370.20"/>
        <lane id=":nt13_13_1" index="1" speed="20.00" length="20.80" shape="464.60,373.40 485.40,373.40"/>
    </edge>
    <edge id=":nt13_15" function="internal">
        <lane id=":nt13_15_0" index="0" speed="9.26" length="5.01" shape="464.60,373.40 469.56,374.11"/>
    </edge>
    <edge id=":nt13_19" function="internal">
        <lane id=":nt13_19_0" index="0" speed="9.26" length="14.34" shape="469.56,374.11 469.85,374.15 473.60,376.40 475.85,380.15 476.60,385.40"/>
    </edge>
    <edge id=":nt14_0" function="internal">
        <lane id=":nt14_0_0" index="0" speed="6.51" length="9.03" shape="670.20,385.40 669.85,382.95 668.80,381.20 667.05,380.15 664.60,379.80"/>
    </edge>
    <edge id=":nt14_1" function="internal">
        <lane id=":nt14_1_0" index="0" speed="20.00" length="20.80" shape="670.20,385.40 670.20,364.60"/>
        <lane id=":nt14_1_1" index="1" speed="20.00" length="20.80" shape="673.40,385.40 673.40,364.60"/>
    </edge>
    <edge id=":nt14_3" function="internal">
        <lane id=":nt14_3_0" index="0" speed="9.26" length="5.01" shape="673.40,385.40 674.11,380.44"/>
    </edge>
    <edge id=":nt14_16" function="internal">
        <lane id=":nt14_16_0" index="0" speed="9.26" length="14.34" shape="674.11,380.44 674.15,380.15 676.40,376.40 680.15,374.15 685.40,373.40"/>
    </edge>
    <edge id=":nt14_4" function="internal">
        <lane id=":nt14_4_0" index="0" speed="6.51" length="9.03" shape="685.40,379.80 682.95,380.15 681.20,381.20 680.15,382.95 679.80,385.40"/>
    </edge>
    <edge id=":nt14_5" function="internal">
        <lane id=":nt14_5_0" index="0" speed="20.00" length="20.80" shape="685.40,379.80 664.60,379.80"/>
        <lane id=":nt14_5_1" index="1" speed="20.00" length="20.80" shape="685.40,376.60 664.60,376.60"/>
    </edge>
    <edge id=":nt14_7" function="internal">
        <lane id=":nt14_7_0" index="0" speed="9.26" length="5.01" shape="685.40,376.60 680.44,375.89"/>
    </edge>
    <edge id=":nt14_17" function="internal">
        <lane id=":nt14_17_0" index="0" speed="9.26" length="14.34" shape="680.44,375.89 680.15,375.85 676.40,373.60 674.15,369.85 673.40,364.60"/>
    </edge>
    <edge id=":nt14_8" function="internal">
        <lane id=":nt14_8_0" index="0" speed="6.51" length="9.03" shape="679.80,364.60 680.15,367.05 681.20,368.80 682.95,369.85 685.40,370.20"/>
    </edge>
    <edge id=":nt14_9" function="internal">
        <lane id=":nt14_9_0" index="0" speed="20.00" length="20.80" shape="679.80,364.60 679.80,385.40"/>
        <lane id=":nt14_9_1" index="1" speed="20.00" length="20.80" shape="676.60,364.60 676.60,385.40"/>
    </edge>
    <edge id=":nt14_11" function="internal">
        <lane id=":nt14_11_0" index="0" speed="9.26" length="5.01" shape="676.60,364.60 675.89,369.56"/>
    </edge>
    <edge id=":nt14_18" function="internal">
        <lane id=":nt14_18_0" index="0" speed="9.26" length="14.34" shape="675.89,369.56 675.85,369.85 673.60,373.60 669.85,375.85 664.60,376.60"/>
    </edge>
    <edge id=":nt14_12" function="internal">
        <lane id=":nt14_12_0" index="0" speed="6.51" length="9.03" shape="664.60,370.20 667.05,369.85 668.80,368.80 669.85,367.05 670.20,364.60"/>
    </edge>
    <edge id=":nt14_13" function="internal">
        <lane id=":nt14_13_0" index="0" speed="20.00" length="20.80" shape="664.60,370.20 685.40,370.20"/>
        <lane id=":nt14_13_1" index="1" speed="20.00" length="20.80" shape="664.60,373.40 685.40,373.40"/>
    </edge>
    <edge id=":nt14_15" function="internal">
        <lane id=":nt14_15_0" index="0" speed="9.26" length="5.01" shape="664.60,373.40 669.56,374.11"/>
    </edge>
    <edge id=":nt14_19" function="internal">
        <lane id=":nt14_19_0" index="0" speed="9.26" length="14.34" shape="669.56,374.11 669.85,374.15 673.60,376.40 675.85,380.15 676.60,385.40"/>
    </edge>
    <edge id=":nt15_0" function="internal">
        <lane id=":nt15_0_0" index="0" speed="6.51" length="9.03" shape="870.20,385.40 869.85,382.95 868.80,381.20 867.05,380.15 864.60,379.80"/>
    </edge>
    <edge id=":nt15_1" function="internal">
        <lane id=":nt15_1_0" index="0" speed="20.00" length="20.80" shape="870.20,385.40 870.20,364.60"/>
        <lane id=":nt15_1_1" index="1" speed="20.00" length="20.80" shape="873.40,385.40 873.40,364.60"/>
    </edge>
    <edge id=":nt15_3" function="internal">
        <lane id=":nt15_3_0" index="0" speed="9.26" length="5.01" shape="873.40,385.40 874.11,380.44"/>
    </edge>
    <edge id=":nt15_16" function="internal">
        <lane id=":nt15_16_0" index="0" speed="9.26" length="14.34" shape="874.11,380.44 874.15,380.15 876.40,376.40 880.15,374.15 885.40,373.40"/>
    </edge>
    <edge id=":nt15_4" function="internal">
        <lane id=":nt15_4_0" index="0" speed="6.51" length="9.03" shape="885.40,379.80 882.95,380.15 881.20,381.20 880.15,382.95 879.80,385.40"/>
    </edge>
    <edge id=":nt15_5" function="internal">
        <lane id=":nt15_5_0" index="0" speed="20.00" length="20.80" shape="885.40,379.80 864.60,379.80"/>
        <lane id=":nt15_5_1" index="1" speed="20.00" length="20.80" shape="885.40,376.60 864.60,376.60"/>
    </edge>
    <edge id=":nt15_7" function="internal">
        <lane id=":nt15_7_0" index="0" speed="9.26" length="5.01" shape="885.40,376.60 880.44,375.89"/>
    </edge>
    <edge id=":nt15_17" function="internal">
        <lane id=":nt15_17_0" index="0" speed="9.26" length="14.34" shape="880.44,375.89 880.15,375.85 876.40,373.60 874.15,369.85 873.40,364.60"/>
    </edge>
    <edge id=":nt15_8" function="internal">
        <lane id=":nt15_8_0" index="0" speed="6.51" length="9.03" shape="879.80,364.60 880.15,367.05 881.20,368.80 882.95,369.85 885.40,370.20"/>
    </edge>
    <edge id=":nt15_9" function="internal">
        <lane id=":nt15_9_0" index="0" speed="20.00" length="20.80" shape="879.80,364.60 879.80,385.40"/>
        <lane id=":nt15_9_1" index="1" speed="20.00" length="20.80" shape="876.60,364.60 876.60,385.40"/>
    </edge>
    <edge id=":nt15_11" function="internal">
        <lane id=":nt15_11_0" index="0" speed="9.26" length="5.01" shape="876.60,364.60 875.89,369.56"/>
    </edge>
    <edge id=":nt15_18" function="internal">
        <lane id=":nt15_18_0" index="0" speed="9.26" length="14.34" shape="875.89,369.56 875.85,369.85 873.60,373.60 869.85,375.85 864.60,376.60"/>
    </edge>
    <edge id=":nt15_12" function="internal">
        <lane id=":nt15_12_0" index="0" speed="6.51" length="9.03" shape="864.60,370.20 867.05,369.85 868.80,368.80 869.85,367.05 870.20,364.60"/>
    </edge>
    <edge id=":nt15_13" function="internal">
        <lane id=":nt15_13_0" index="0" speed="20.00" length="20.80" shape="864.60,370.20 885.40,370.20"/>
        <lane id=":nt15_13_1" index="1" speed="20.00" length="20.80" shape="864.60,373.40 885.40,373.40"/>
    </edge>
    <edge id=":nt15_15" function="internal">
        <lane id=":nt15_15_0" index="0" speed="9.26" length="5.01" shape="864.60,373.40 869.56,374.11"/>
    </edge>
    <edge id=":nt15_19" function="internal">
        <lane id=":nt15_19_0" index="0" speed="9.26" length="14.34" shape="869.56,374.11 869.85,374.15 873.60,376.40 875.85,380.15 876.60,385.40"/>
    </edge>
    <edge id=":nt16_0" function="internal">
        <lane id=":nt16_0_0" index="0" speed="6.51" length="9.03" shape="70.20,535.40 69.85,532.95 68.80,531.20 67.05,530.15 64.60,529.80"/>
    </edge>
    <edge id=":nt16_1" function="internal">
        <lane id=":nt16_1_0" index="0" speed="20.00" length="20.80" shape="70.20,535.40 70.20,514.60"/>
        <lane id=":nt16_1_1" index="1" speed="20.00" length="20.80" shape="73.40,535.40 73.40,514.60"/>
    </edge>
    <edge id=":nt16_3" function="internal">
        <lane id=":nt16_3_0" index="0" speed="9.26" length="5.01" shape="73.40,535.40 74.11,530.44"/>
    </edge>
    <edge id=":nt16_16" function="internal">
        <lane id=":nt16_16_0" index="0" speed="9.26" length="14.34" shape="74.11,530.44 74.15,530.15 76.40,526.40 80.15,524.15 85.40,523.40"/>
    </edge>
    <edge id=":nt16_4" function="internal">
        <lane id=":nt16_4_0" index="0" speed="6.51" length="9.03" shape="85.40,529.80 82.95,530.15 81.20,531.20 80.15,532.95 79.80,535.40"/>
    </edge>
    <edge id=":nt16_5" function="internal">
        <lane id=":nt16_5_0" index="0" speed="20.00" length="20.80" shape="85.40,529.80 64.60,529.80"/>
        <lane id=":nt16_5_1" index="1" speed="20.00" length="20.80" shape="85.40,526.60 64.60,526.60"/>
    </edge>
    <edge id=":nt16_7" function="internal">
        <lane id=":nt16_7_0" index="0" speed="9.26" length="5.01" shape="85.40,526.60 80.44,525.89"/>
    </edge>
    <edge id=":nt16_17" function="internal">
        <lane id=":nt16_17_0" index="0" speed="9.26" length="14.34" shape="80.44,525.89 80.15,525.85 76.40,523.60 74.15,519.85 73.40,514.60"/>
    </edge>
    <edge id=":nt16_8" function="internal">