<?xml version="1.0" encoding="UTF-8"?>

<!-- generated on 2022-10-11 08:57:12 by Eclipse SUMO polyconvert Version 1.14.1
<configuration xmlns:xsi="http://www.w3.org/2001/XMLSchema-instance" xsi:noNamespaceSchemaLocation="http://sumo.dlr.de/xsd/polyconvertConfiguration.xsd">

    <input>
        <net-file value="osm.net.xml"/>
        <osm-files value="osm_bbox.osm.xml.gz"/>
        <osm.keep-full-type value="true"/>
        <type-file value="C:\Program%20Files%20(x86)\Eclipse\Sumo\data\typemap\osmPolyconvert.typ.xml"/>
    </input>

    <output>
        <output-file value="osm.poly.xml"/>
    </output>

    <report>
        <verbose value="true"/>
    </report>

</configuration>
-->

<additional xmlns:xsi="http://www.w3.org/2001/XMLSchema-instance" xsi:noNamespaceSchemaLocation="http://sumo.dlr.de/xsd/additional_file.xsd">
    <location netOffset="-231218.58,-3335748.74" convBoundary="0.00,0.00,14315.31,15033.56" origBoundary="120.206458,30.124562,120.356769,30.258944" projParameter="+proj=utm +zone=51 +ellps=WGS84 +datum=WGS84 +units=m +no_defs"/>

    <poly id="1000800170" type="landuse.residential" color="235,235,227" fill="1" layer="-3.00" shape="4095.628419,10549.164895 4083.265233,10381.700264 4393.351165,10438.009838 4400.664209,10544.157892 4374.873873,10557.782828 4374.734867,10601.496456 4095.628419,10549.164895"/>
    <poly id="1008049727" type="building.school" color="255,230,230" fill="1" layer="-1.00" shape="3125.622786,10996.363833 3126.653795,11027.335744 3192.489454,11025.139180 3191.449003,10994.167510 3125.622786,10996.363833"/>
    <poly id="1008049728" type="building.school" color="255,230,230" fill="1" layer="-1.00" shape="3200.431248,11119.778864 3193.115342,11111.691258 3190.450591,11099.940694 3188.521382,11069.267936 3190.603521,11057.402202 3199.381124,11051.875169 3230.173875,11048.765098 3237.547077,11059.214382 3240.765989,11069.187549 3240.598545,11086.908881 3232.661344,11102.455653 3217.551648,11115.824488 3200.431248,11119.778864"/>
    <poly id="1008049729" type="building.school" color="255,230,230" fill="1" layer="-1.00" shape="3233.123957,11170.373589 3214.232392,11150.163593 3202.331648,11149.265252 3194.160993,11154.788659 3168.664301,11180.801711 3173.726191,11193.670080 3194.752809,11203.799136 3208.339052,11201.106457 3229.862402,11182.867008 3233.123957,11170.373589"/>
    <poly id="1008049730" type="building.school" color="255,230,230" fill="1" layer="-1.00" shape="3246.096868,11161.061571 3244.007990,11125.389253 3286.675581,11122.912080 3288.764319,11158.584396 3246.096868,11161.061571"/>
    <poly id="1008049731" type="building.school" color="255,230,230" fill="1" layer="-1.00" shape="3245.727830,11066.415698 3247.221925,11100.604739 3290.203157,11098.741250 3288.709197,11064.552213 3245.727830,11066.415698"/>
    <poly id="1008049732" type="building.school" color="255,230,230" fill="1" layer="-1.00" shape="3254.913412,11011.376970 3256.407465,11045.566008 3299.389181,11043.713658 3297.904623,11009.513303 3254.913412,11011.376970"/>
    <poly id="1008049733" type="building.school" color="255,230,230" fill="1" layer="-1.00" shape="3251.621167,11186.244292 3252.698395,11217.148502 3306.055196,11215.288512 3304.978388,11184.395394 3251.621167,11186.244292"/>
    <poly id="1008049734" type="building.residential" color="255,230,230" fill="1" layer="-1.00" shape="3394.960128,11211.768091 3393.767126,11193.158956 3426.982502,11191.044605 3428.175447,11209.653740 3394.960128,11211.768091"/>
    <poly id="1008049735" type="building.residential" color="255,230,230" fill="1" layer="-1.00" shape="3358.022917,11243.949015 3356.830118,11225.350967 3390.054758,11223.225176 3391.247769,11241.834311 3358.022917,11243.949015"/>
    <poly id="1008049736" type="building.residential" color="255,230,230" fill="1" layer="-1.00" shape="3361.352585,11189.363030 3360.159528,11170.753895 3393.384604,11168.639213 3394.577604,11187.248348 3361.352585,11189.363030"/>
    <poly id="1008049737" type="building.residential" color="255,230,230" fill="1" layer="-1.00" shape="3436.650685,11182.911252 3435.457757,11164.302118 3468.682845,11162.187668 3469.875716,11180.796801 3436.650685,11182.911252"/>
    <poly id="1008049738" type="building.residential" color="255,230,230" fill="1" layer="-1.00" shape="3435.440743,11239.509292 3434.247807,11220.900156 3467.472723,11218.785690 3468.655973,11237.395058 3435.440743,11239.509292"/>
    <poly id="1008049739" type="building.residential" color="255,230,230" fill="1" layer="-1.00" shape="3358.120225,11120.025714 3356.927169,11101.416580 3390.152456,11099.301904 3391.345455,11117.911038 3358.120225,11120.025714"/>
    <poly id="1008049740" type="building.residential" color="255,230,230" fill="1" layer="-1.00" shape="3438.044393,11112.430074 3436.851474,11093.820941 3470.076777,11091.706510 3471.269639,11110.315643 3438.044393,11112.430074"/>
    <poly id="1008049741" type="building.residential" color="255,230,230" fill="1" layer="-1.00" shape="3395.077741,11088.265920 3393.885019,11069.667874 3427.110131,11067.542230 3428.303333,11086.162450 3395.077741,11088.265920"/>
    <poly id="1008049742" type="building.residential" color="255,230,230" fill="1" layer="-1.00" shape="3357.318597,11044.450061 3356.125547,11025.840928 3389.351065,11023.726266 3390.544058,11042.335399 3357.318597,11044.450061"/>
    <poly id="1008049743" type="building.residential" color="255,230,230" fill="1" layer="-1.00" shape="3438.821576,11059.437020 3437.628932,11040.838975 3470.854127,11038.713471 3472.047252,11057.333690 3438.821576,11059.437020"/>
    <poly id="1008049744" type="building.residential" color="255,230,230" fill="1" layer="-1.00" shape="3590.373542,10977.739998 3650.554178,10993.056500 3645.411214,11013.017232 3585.240034,10997.689444 3590.373542,10977.739998"/>
    <poly id="1008049745" type="building.residential" color="255,230,230" fill="1" layer="-1.00" shape="3615.758412,10885.798805 3675.939489,10901.115478 3670.796416,10921.076190 3610.624796,10905.748231 3615.758412,10885.798805"/>
    <poly id="1008049746" type="building.residential" color="255,230,230" fill="1" layer="-1.00" shape="3686.486855,10905.796915 3746.667689,10921.113963 3741.524505,10941.074633 3681.343499,10925.746533 3686.486855,10905.796915"/>
    <poly id="1008049747" type="building.residential" color="255,230,230" fill="1" layer="-1.00" shape="3684.907271,11009.653290 3745.087557,11024.970291 3739.944447,11044.930968 3679.773618,11029.602682 3684.907271,11009.653290"/>
    <poly id="1008049748" type="building.residential" color="255,230,230" fill="1" layer="-1.00" shape="3751.067642,10987.449669 3787.395907,10996.099990 3782.485702,11016.532044 3746.147869,11007.881977 3751.067642,10987.449669"/>
    <poly id="1008049749" type="building.residential" color="255,230,230" fill="1" layer="-1.00" shape="3753.934505,10925.198147 3790.262967,10933.848491 3785.352446,10954.269452 3749.014684,10945.630449 3753.934505,10925.198147"/>
    <poly id="1008049750" type="leisure.pitch" color="207,245,201" fill="1" layer="-2.00" shape="3673.013276,10600.437794 3672.049651,10476.285489 3720.379638,10472.397337 3737.067964,10485.572449 3737.439829,10585.309942 3727.088240,10608.625049 3708.069409,10611.803537 3689.569945,10608.179930 3673.013276,10600.437794"/>
    <poly id="1008049751" type="leisure.pitch" color="207,245,201" fill="1" layer="-2.00" shape="3918.865347,10586.344456 3913.542848,10450.760062 3933.476900,10429.243602 3964.861979,10429.837947 3989.446267,10431.284678 4002.149689,10448.616945 4009.936315,10460.643151 4010.699288,10576.656965 3996.067906,10591.943350 3988.063761,10599.603201 3978.685319,10606.608470 3948.684421,10606.657386 3933.452931,10597.529350 3918.865347,10586.344456"/>
    <poly id="1009909872" type="building.yes" color="255,230,230" fill="1" layer="-1.00" shape="3060.128720,9863.304159 3060.748680,9831.670956 3111.676096,9832.654228 3111.055990,9864.287418 3060.128720,9863.304159"/>
    <poly id="1009909873" type="building.yes" color="255,230,230" fill="1" layer="-1.00" shape="3600.290676,9835.744616 3599.643839,9805.051980 3646.847695,9803.875812 3647.362771,9834.305372 3600.290676,9835.744616"/>
    <poly id="1009909874" type="building.yes" color="255,230,230" fill="1" layer="-1.00" shape="3647.362771,9834.305372 3600.290676,9835.744616 3577.924493,9836.430437 3577.097466,9792.728850 3646.779314,9792.295297 3646.847695,9803.875812 3647.362771,9834.305372"/>
    <poly id="1012707112" type="natural.scrub" color="140,196,107" fill="1" layer="-4.00" shape="4050.027578,8354.112481 4069.783522,8352.958461 4068.989753,8306.937674 4080.215650,8304.514255 4083.519206,8356.698125 4087.478174,8436.013101 4093.418312,8484.050704 4088.236209,8495.713617 4086.746549,8519.413039 4092.691244,8594.364503 4082.804562,8613.119190 4066.302938,8614.538516 4058.648092,8597.239365 4050.027578,8354.112481"/>
    <poly id="1012707113" type="natural.scrub" color="140,196,107" fill="1" layer="-4.00" shape="4102.240967,8946.966478 4065.048367,8947.865133 4075.079162,9149.233639 4082.777104,9168.328960 4102.908207,9166.810787 4108.659143,9100.141249 4105.898787,9023.382156 4100.320282,9003.869507 4097.768534,8981.210698 4102.240967,8946.966478"/>
    <poly id="1012707114" type="natural.scrub" color="140,196,107" fill="1" layer="-4.00" shape="4062.040957,8902.763125 4057.568430,8685.362697 4062.615344,8667.312891 4070.924040,8654.642517 4088.172036,8655.002383 4096.302831,8667.275575 4101.042336,8733.425363 4095.356507,8757.736491 4100.066618,8790.361010 4110.079587,8880.546074 4099.599909,8901.067950 4062.040957,8902.763125"/>
    <poly id="1012707115" type="natural.scrub" color="140,196,107" fill="1" layer="-4.00" shape="4091.201999,9678.437564 4081.861590,9664.329872 4076.561341,9258.817456 4075.717883,9223.913982 4081.605274,9206.764639 4102.160946,9200.887358 4107.047497,9216.888838 4110.989145,9305.445589 4101.404814,9355.821975 4109.679756,9400.397331 4114.816796,9463.852813 4109.825124,9480.980509 4117.581039,9504.079364 4114.121812,9547.141047 4110.165348,9569.624315 4117.779473,9586.458493 4118.184572,9677.785485 4091.201999,9678.437564"/>
    <poly id="1012707116" type="natural.scrub" color="140,196,107" fill="1" layer="-4.00" shape="4060.492869,10046.302263 4070.695756,9909.954481 4113.908180,9910.696177 4111.377855,9805.996783 4076.328136,9807.731411 4081.566055,9763.728073 4080.895572,9735.987113 4095.130952,9729.374959 4125.671772,9726.850759 4137.409474,9952.207725 4137.907043,9972.797239 4138.853458,9980.462503 4141.893105,10037.267931 4060.492869,10046.302263"/>
    <poly id="1012707120" type="building.school" color="255,230,230" fill="1" layer="-1.00" shape="3757.978373,8615.313663 3756.289523,8567.006854 3692.808510,8550.026665 3690.805515,8488.348071 3742.699433,8475.266467 3742.650141,8452.114479 3690.878365,8448.740707 3688.758245,8428.423406 3756.665388,8432.749265 3758.680321,8494.937866 3710.395333,8507.421769 3710.892639,8527.978023 3776.957758,8545.417243 3779.042136,8588.566862 3812.532886,8590.341779 3812.943541,8614.494573 3757.978373,8615.313663"/>
    <poly id="1012707122" type="building.school" color="255,230,230" fill="1" layer="-1.00" shape="3696.413848,8737.272866 3748.893657,8735.315379 3749.566615,8763.133960 3757.031485,8790.089316 3775.368538,8814.762571 3793.318284,8823.824863 3809.111822,8828.202193 3813.385266,8835.565098 3815.233661,8883.701639 3811.403247,8894.655310 3804.015897,8899.582221 3754.321028,8903.502349 3753.944735,8896.710826 3741.380544,8898.357159 3740.205295,8905.541227 3724.944856,8907.263906 3724.654521,8913.982806 3697.702459,8915.977311 3696.933554,8884.200475 3737.388993,8882.334132 3738.014642,8889.474631 3752.876925,8890.013690 3752.671194,8881.509563 3802.121498,8879.425862 3801.309731,8845.863951 3769.502808,8833.198474 3746.907180,8829.263103 3710.100469,8831.396117 3699.284613,8832.023917 3693.886449,8832.343132 3693.507368,8816.676466 3699.160603,8818.137215 3707.923050,8817.869732 3747.520351,8817.166896 3756.925552,8815.585903 3758.133283,8809.743428 3757.517011,8802.591609 3751.497999,8795.570486 3707.283025,8796.196427 3698.520292,8796.452822 3695.738457,8797.374371 3695.478498,8786.630564 3746.298982,8785.401020 3744.249153,8775.155371 3735.457647,8765.061722 3730.916979,8763.385438 3696.683847,8761.972695 3696.413848,8737.272866"/>
    <poly id="1012707123" type="building.school" color="255,230,230" fill="1" layer="-1.00" shape="3695.156920,8867.724479 3694.396186,8853.409422 3699.746991,8853.124634 3710.111803,8852.574310 3757.229495,8850.058721 3758.000313,8864.395719 3695.156920,8867.724479"/>
    <poly id="1012707124" type="building.school" color="255,230,230" fill="1" layer="-1.00" shape="3699.160603,8818.137215 3698.520292,8796.452822 3707.283025,8796.196427 3707.923050,8817.869732 3699.160603,8818.137215"/>
    <poly id="1012707125" type="building.school" color="255,230,230" fill="1" layer="-1.00" shape="3699.746991,8853.124634 3699.284613,8832.023917 3710.100469,8831.396117 3710.111803,8852.574310 3699.746991,8853.124634"/>
    <poly id="1012707126" type="leisure.stadium" color="207,245,201" fill="1" layer="-2.00" shape="3810.950224,8778.312385 3775.817922,8779.162137 3764.217565,8769.668924 3762.306306,8754.793721 3754.566288,8755.502372 3751.546226,8673.280103 3800.104013,8672.105594 3806.044310,8682.246062 3808.304238,8690.423153 3810.950224,8778.312385"/>
    <poly id="1012707128" type="landuse.commercial" color="209,209,204" fill="1" layer="-3.00" shape="4117.272740,8600.316124 4104.023334,8051.784520 4164.248945,8047.212684 4176.110597,8421.491474 4176.858278,8457.639724 4183.031682,8597.951264 4117.272740,8600.316124"/>
    <poly id="1012707132" type="landuse.residential" color="235,235,227" fill="1" layer="-3.00" shape="2709.866352,8657.013870 2703.585116,8463.041791 2715.126709,8454.185784 2876.472583,8451.822239 2875.876740,8491.597900 2960.407787,8487.993629 2959.356109,8638.477037 2952.684640,8654.237179 2709.866352,8657.013870"/>
    <poly id="1012740455" type="building.commercial" color="255,230,230" fill="1" layer="-1.00" shape="4134.306693,8586.625187 4132.088265,8529.888764 4165.331505,8528.597719 4167.559123,8585.322815 4134.306693,8586.625187"/>
    <poly id="1012740472" type="landuse.residential" color="235,235,227" fill="1" layer="-3.00" shape="5352.598359,9603.882488 5320.002826,9409.236963 5378.592988,9395.480356 5415.541262,9599.284660 5352.598359,9603.882488"/>
    <poly id="1012740473" type="building.apartments" color="255,230,230" fill="1" layer="-1.00" shape="5410.746124,8621.121935 5365.208921,8628.074221 5362.743514,8612.102886 5408.280785,8605.150594 5410.746124,8621.121935"/>
    <poly id="1012740474" type="landuse.residential" color="235,235,227" fill="1" layer="-3.00" shape="5374.168598,8781.497513 5345.686862,8628.909696 5345.068907,8603.209012 5414.889102,8583.014841 5442.188939,8772.662401 5374.168598,8781.497513"/>
    <poly id="1015040579" type="building.residential" color="255,230,230" fill="1" layer="-1.00" shape="3849.361762,8792.726444 3850.399756,8812.936793 3916.133389,8809.572361 3915.095250,8789.350928 3849.361762,8792.726444"/>
    <poly id="1015040580" type="building.residential" color="255,230,230" fill="1" layer="-1.00" shape="3858.164089,8881.376499 3859.201810,8901.575762 3924.934908,8898.211345 3923.887142,8877.990143 3858.164089,8881.376499"/>
    <poly id="1015040581" type="building.residential" color="255,230,230" fill="1" layer="-1.00" shape="3940.322851,8877.049197 3941.370317,8897.259311 4007.103151,8893.884303 4006.055538,8873.663104 3940.322851,8877.049197"/>
    <poly id="1015040582" type="building.residential" color="255,230,230" fill="1" layer="-1.00" shape="3949.573292,8791.734690 4010.571511,8789.395016 4011.368727,8810.021647 3950.370891,8812.372413 3949.573292,8791.734690"/>
    <poly id="1015040583" type="building.residential" color="255,230,230" fill="1" layer="-1.00" shape="3879.812465,8760.460992 3846.795138,8761.902825 3847.374763,8775.112852 3880.392051,8773.671018 3879.812465,8760.460992"/>
    <poly id="1015040584" type="building.residential" color="255,230,230" fill="1" layer="-1.00" shape="3921.019610,8760.574114 3884.400454,8762.102910 3884.980034,8775.312936 3920.694140,8773.817112 3921.019610,8760.574114"/>
    <poly id="1015040585" type="building.residential" color="255,230,230" fill="1" layer="-1.00" shape="3879.669088,8734.604361 3846.651682,8736.046189 3847.221674,8749.256449 3880.248671,8747.814387 3879.669088,8734.604361"/>
    <poly id="1015040586" type="building.residential" color="255,230,230" fill="1" layer="-1.00" shape="3920.866966,8734.728811 3884.247456,8736.246513 3884.827034,8749.456538 3920.541224,8747.960720 3920.866966,8734.728811"/>
    <poly id="1015040587" type="building.residential" color="255,230,230" fill="1" layer="-1.00" shape="3879.926429,8708.183344 3846.908676,8709.614077 3847.488296,8722.824103 3880.506009,8721.393369 3879.926429,8708.183344"/>
    <poly id="1015040588" type="building.residential" color="255,230,230" fill="1" layer="-1.00" shape="3921.124139,8708.296713 3884.514439,8709.825263 3885.084383,8723.035521 3920.808291,8721.539477 3921.124139,8708.296713"/>
    <poly id="1015040589" type="building.residential" color="255,230,230" fill="1" layer="-1.00" shape="3880.592991,8679.955206 3847.575421,8681.397019 3848.155037,8694.607045 3881.172568,8693.165231 3880.592991,8679.955206"/>
    <poly id="1015040590" type="building.residential" color="255,230,230" fill="1" layer="-1.00" shape="3921.800705,8680.079441 3885.181012,8681.597127 3885.760583,8694.807151 3921.474952,8693.311349 3921.800705,8680.079441"/>
    <poly id="1015040591" type="building.residential" color="255,230,230" fill="1" layer="-1.00" shape="3969.532719,8757.171507 3936.515396,8758.613068 3937.094644,8771.812005 3970.112195,8770.381530 3969.532719,8757.171507"/>
    <poly id="1015040592" type="building.residential" color="255,230,230" fill="1" layer="-1.00" shape="4006.385389,8754.938434 3973.358166,8756.369028 3973.937638,8769.579051 4006.955190,8768.148688 4006.385389,8754.938434"/>
    <poly id="1015040593" type="building.residential" color="255,230,230" fill="1" layer="-1.00" shape="4004.912312,8731.465890 3971.894917,8732.907338 3972.474120,8746.106273 4005.491743,8744.675911 4004.912312,8731.465890"/>
    <poly id="1015040594" type="building.residential" color="255,230,230" fill="1" layer="-1.00" shape="3968.069193,8733.698730 3935.051799,8735.140290 3935.621684,8748.350547 3968.639038,8746.908985 3968.069193,8733.698730"/>
    <poly id="1015040595" type="building.residential" color="255,230,230" fill="1" layer="-1.00" shape="4004.274040,8705.055454 3971.256565,8706.496899 3971.836034,8719.706921 4004.853738,8718.276563 4004.274040,8705.055454"/>
    <poly id="1015040596" type="building.residential" color="255,230,230" fill="1" layer="-1.00" shape="3967.431100,8707.299377 3934.413358,8708.729847 3934.983241,8721.940103 3968.000944,8720.509632 3967.431100,8707.299377"/>
    <poly id="1015040597" type="building.residential" color="255,230,230" fill="1" layer="-1.00" shape="4004.433336,8674.165965 3971.405869,8675.596548 3971.985336,8688.806569 4005.003132,8687.376218 4004.433336,8674.165965"/>
    <poly id="1015040598" type="building.residential" color="255,230,230" fill="1" layer="-1.00" shape="3967.580393,8676.399025 3934.562557,8677.829487 3935.142069,8691.039510 3968.159864,8689.609047 3967.580393,8676.399025"/>
    <poly id="1015040599" type="natural.grassland" color="140,196,107" fill="1" layer="-4.00" shape="3767.797928,9174.191865 3768.032500,9141.270260 3698.710724,9138.831679 3695.163715,8949.642509 3807.806774,8947.949135 3815.188319,8953.938862 3824.302417,9159.445628 3818.399044,9171.936047 3767.797928,9174.191865"/>
    <poly id="1015040600" type="natural.grassland" color="140,196,107" fill="1" layer="-4.00" shape="3850.280052,9164.996679 3848.035518,8943.892050 4023.466505,8930.620391 4026.881273,9157.631713 3850.280052,9164.996679"/>
    <poly id="1015040601" type="natural.grassland" color="140,196,107" fill="1" layer="-4.00" shape="3864.922243,9685.117859 3857.838614,9477.509499 4030.353381,9472.306429 4039.553977,9681.926897 3864.922243,9685.117859"/>
    <poly id="1015040602" type="natural.grassland" color="140,196,107" fill="1" layer="-4.00" shape="3861.594718,9440.386854 3850.928385,9213.317571 4025.493158,9207.044596 4036.220728,9437.196351 3861.594718,9440.386854"/>
    <poly id="1015040603" type="natural.grassland" color="140,196,107" fill="1" layer="-4.00" shape="3707.918120,10074.633907 3700.084421,9964.759638 4016.715015,9934.479168 3998.808920,10049.080484 3707.918120,10074.633907"/>
    <poly id="1015040604" type="natural.grassland" color="140,196,107" fill="1" layer="-4.00" shape="3702.289541,9927.685480 3700.104867,9751.842526 3839.308302,9737.169301 3841.515396,9914.032173 3702.289541,9927.685480"/>
    <poly id="1015040605" type="natural.grassland" color="140,196,107" fill="1" layer="-4.00" shape="3867.167815,9906.211585 3868.385093,9742.634202 4026.282821,9731.615984 4036.938470,9744.726660 4022.170707,9903.483761 3867.167815,9906.211585"/>
    <poly id="1015040606" type="natural.grassland" color="140,196,107" fill="1" layer="-4.00" shape="3338.694778,9981.745233 3316.901051,9850.620214 3427.483393,9806.792402 3446.773076,9962.673551 3338.694778,9981.745233"/>
    <poly id="1015040607" type="natural.grassland" color="140,196,107" fill="1" layer="-4.00" shape="3474.744543,9965.080008 3450.069722,9800.076875 3522.796555,9772.599134 3534.508170,9786.715548 3538.616329,9956.332759 3474.744543,9965.080008"/>
    <poly id="1015040608" type="natural.grassland" color="140,196,107" fill="1" layer="-4.00" shape="3514.065754,10094.748810 3506.429649,9993.112585 3663.950504,9966.666104 3665.632874,10078.741701 3514.065754,10094.748810"/>
    <poly id="1015040620" type="landuse.residential" color="235,235,227" fill="1" layer="-3.00" shape="4199.304564,10027.537976 4175.676737,9733.929698 4645.214514,9699.974886 4628.082370,9761.071925 4598.498055,9820.417011 4564.658893,9874.717276 4531.909570,9931.043764 4525.694766,9973.361838 4523.760084,10021.755970 4199.304564,10027.537976"/>
    <poly id="1015040621" type="landuse.residential" color="235,235,227" fill="1" layer="-3.00" shape="4570.126824,10015.489579 4579.144986,9960.767438 4601.735271,9911.875043 4632.845747,9873.072382 4671.905791,9820.698830 4682.202688,9776.218999 4693.975203,9707.019609 5066.670199,9686.723323 5106.297118,10001.545813 4570.126824,10015.489579"/>
    <poly id="1015040622" type="landuse.industrial" color="209,209,204" fill="1" layer="-3.00" shape="4221.340232,9599.976170 4211.681200,9200.083196 4415.050688,9187.973183 4422.083397,9393.529666 4310.664848,9403.419329 4315.405905,9599.767863 4221.340232,9599.976170"/>
    <poly id="1015040623" type="building.industrial" color="255,230,230" fill="1" layer="-1.00" shape="4452.205527,9260.618316 4600.988159,9252.535961 4606.361955,9351.097982 4457.570505,9359.158417 4452.205527,9260.618316"/>
    <poly id="1015040624" type="landuse.industrial" color="209,209,204" fill="1" layer="-3.00" shape="4452.486469,9372.083521 4440.483680,9185.750789 4603.275760,9176.387516 4610.997180,9185.708800 4624.744217,9359.784959 4452.486469,9372.083521"/>
    <poly id="1015040625" type="landuse.industrial" color="209,209,204" fill="1" layer="-3.00" shape="4452.486469,9372.083521 4458.477862,9450.661596 4632.068926,9436.966301 4624.744217,9359.784959 4452.486469,9372.083521"/>
    <poly id="1015040626" type="landuse.industrial" color="209,209,204" fill="1" layer="-3.00" shape="4458.477862,9450.661596 4466.043434,9566.521736 4641.772303,9556.846300 4632.068926,9436.966301 4458.477862,9450.661596"/>
    <poly id="1015040627" type="landuse.industrial" color="209,209,204" fill="1" layer="-3.00" shape="4870.074508,9633.648537 4867.211252,9579.202045 4904.339539,9575.733668 4903.980518,9560.832105 4922.575676,9560.384112 4918.932492,9473.551126 4996.325085,9467.571128 5008.400341,9625.690090 4870.074508,9633.648537"/>
    <poly id="1015040628" type="landuse.industrial" color="209,209,204" fill="1" layer="-3.00" shape="5013.088623,9627.119231 5002.019267,9467.955407 5100.637383,9463.517368 5114.756693,9620.555360 5013.088623,9627.119231"/>
    <poly id="1015040629" type="building.yes" color="255,230,230" fill="1" layer="-1.00" shape="4785.457795,9628.887256 4778.373833,9563.248871 4846.474417,9555.949675 4853.567596,9621.587842 4785.457795,9628.887256"/>
    <poly id="1015040629#1" type="shop.car" color="237,199,255" fill="1" layer="-1.00" shape="4785.457795,9628.887256 4778.373833,9563.248871 4846.474417,9555.949675 4853.567596,9621.587842 4785.457795,9628.887256"/>
    <poly id="1015040630" type="building.yes" color="255,230,230" fill="1" layer="-1.00" shape="4323.824447,9636.363268 4321.079632,9500.339882 4413.708799,9498.469808 4416.461824,9634.481815 4323.824447,9636.363268"/>
    <poly id="1015040630#1" type="shop.yes" color="237,199,255" fill="1" layer="-1.00" shape="4323.824447,9636.363268 4321.079632,9500.339882 4413.708799,9498.469808 4416.461824,9634.481815 4323.824447,9636.363268"/>
    <poly id="1015040631" type="amenity.fuel" color="237,199,199" fill="1" layer="-1.00" shape="4070.695756,9909.954481 4076.328136,9807.731411 4111.377855,9805.996783 4113.908180,9910.696177 4070.695756,9909.954481"/>
    <poly id="1015040633" type="amenity.fuel" color="237,199,199" fill="1" layer="-1.00" shape="4086.165940,9898.630779 4090.691816,9843.905664 4106.716805,9836.795404 4110.689126,9889.528983 4086.165940,9898.630779"/>
    <poly id="1015040633#1" type="building.yes" color="255,230,230" fill="1" layer="-1.00" shape="4086.165940,9898.630779 4090.691816,9843.905664 4106.716805,9836.795404 4110.689126,9889.528983 4086.165940,9898.630779"/>
    <poly id="1015841415" type="natural.water" color="181,209,209" fill="1" layer="-4.00" shape="3676.345389,9698.955502 3662.499490,9677.468706 3662.441529,9658.754481 3667.683923,9632.512236 3665.107995,9623.222323 3670.154972,9621.546992 3663.151853,9607.294272 3660.528681,9596.052955 3661.947513,9589.783766 3661.485350,9570.691036 3657.405761,9564.166653 3663.401333,9552.716708 3657.055540,9533.378107 3657.947511,9521.663411 3662.533924,9516.881807 3665.851021,9508.225833 3669.976329,9500.715170 3671.860147,9481.410344 3681.640692,9481.029393 3681.292455,9498.888108 3676.547329,9513.036901 3672.976830,9527.545558 3679.462506,9536.740839 3676.051180,9541.105702 3681.381053,9551.116636 3679.633632,9559.734614 3687.180883,9564.222524 3677.708233,9577.320873 3677.337735,9583.908599 3676.609828,9596.828572 3680.154668,9613.505844 3684.619422,9620.020911 3681.179708,9623.609880 3682.167176,9632.161662 3685.513709,9641.044634 3684.565377,9650.430948 3681.370938,9663.754538 3681.145730,9670.771415 3684.522004,9697.204419 3676.345389,9698.955502"/>
    <poly id="1015841418" type="building.industrial" color="255,230,230" fill="1" layer="-1.00" shape="4246.116885,9466.094739 4300.143192,9464.091114 4304.846353,9591.025640 4250.849565,9593.028590 4246.116885,9466.094739"/>
    <poly id="1015841419" type="building.industrial" color="255,230,230" fill="1" layer="-1.00" shape="4223.578186,9374.692280 4222.061841,9246.881999 4308.099715,9240.910353 4311.353935,9375.689972 4223.578186,9374.692280"/>
    <poly id="1015841420" type="building.yes" color="255,230,230" fill="1" layer="-1.00" shape="4313.179458,8860.209537 4297.408670,8695.501149 4371.552797,8688.441899 4387.351352,8853.149617 4313.179458,8860.209537"/>
    <poly id="1015841421" type="building.yes" color="255,230,230" fill="1" layer="-1.00" shape="4199.997375,8693.559779 4204.641995,8815.658695 4277.915413,8812.879836 4273.291142,8690.791569 4199.997375,8693.559779"/>
    <poly id="1015841422" type="building.yes" color="255,230,230" fill="1" layer="-1.00" shape="4291.783895,8970.622786 4301.652524,9114.361905 4377.362201,9109.206063 4374.852892,9072.712062 4399.788060,9071.011936 4392.410191,8963.745112 4291.783895,8970.622786"/>
    <poly id="1015841423" type="landuse.commercial" color="209,209,204" fill="1" layer="-3.00" shape="4118.227202,8655.385711 4177.535372,8651.268455 4200.511842,9161.723771 4128.129966,9165.813109 4118.227202,8655.385711"/>
    <poly id="1015841424" type="building.yes" color="255,230,230" fill="1" layer="-1.00" shape="4146.911904,9117.222600 4183.497159,9114.741306 4185.819255,9148.643859 4149.224483,9151.125386 4146.911904,9117.222600"/>
    <poly id="1015841425" type="building.yes" color="255,230,230" fill="1" layer="-1.00" shape="4155.447060,9075.247606 4153.233982,9039.878015 4192.123820,9037.452043 4194.337039,9072.832721 4155.447060,9075.247606"/>
    <poly id="1015841426" type="building.yes" color="255,230,230" fill="1" layer="-1.00" shape="4149.541248,8975.167333 4147.328170,8939.797745 4186.227995,8937.371546 4188.431584,8972.752453 4149.541248,8975.167333"/>
    <poly id="1015841427" type="building.yes" color="255,230,230" fill="1" layer="-1.00" shape="4147.666158,8897.543743 4145.453088,8862.174158 4184.353459,8859.759059 4186.556772,8895.128876 4147.666158,8897.543743"/>
    <poly id="1015841428" type="building.yes" color="255,230,230" fill="1" layer="-1.00" shape="4141.881725,8764.988511 4139.668661,8729.618929 4178.559875,8727.204076 4180.772813,8762.573657 4141.881725,8764.988511"/>
    <poly id="1015841429" type="building.yes" color="255,230,230" fill="1" layer="-1.00" shape="4144.317844,8788.848260 4147.040406,8848.900710 4173.154778,8847.726330 4170.451622,8787.673418 4144.317844,8788.848260"/>
    <poly id="1015841430" type="building.yes" color="255,230,230" fill="1" layer="-1.00" shape="4129.119233,8665.883752 4130.117558,8683.277165 4174.951303,8680.729865 4173.952515,8663.314278 4129.119233,8665.883752"/>