<?xml version="1.0" encoding="UTF-8"?>

<!-- generated on 2022-10-11 12:38:46 by Eclipse SUMO netedit Version 1.14.0
<configuration xmlns:xsi="http://www.w3.org/2001/XMLSchema-instance" xsi:noNamespaceSchemaLocation="http://sumo.dlr.de/xsd/netconvertConfiguration.xsd">

    <input>
        <sumo-net-file value="/Users/yang/Documents/GitHub/deeprl_network/envs/real_net_data/2022-10-11-08-57-04/osm.net.xml"/>
    </input>

    <output>
        <output-file value="/Users/yang/Documents/GitHub/deeprl_network/envs/real_net_data/2022-10-11-08-57-04/osm.net.xml"/>
        <output.street-names value="true"/>
    </output>

    <processing>
        <geometry.min-radius.fix.railways value="false"/>
        <geometry.max-grade.fix value="false"/>
        <offset.disable-normalization value="true"/>
        <lefthand value="false"/>
    </processing>

    <junctions>
        <no-turnarounds value="true"/>
        <junctions.corner-detail value="5"/>
        <junctions.limit-turn-speed value="5.5"/>
        <rectangular-lane-cut value="false"/>
    </junctions>

    <pedestrian>
        <walkingareas value="false"/>
    </pedestrian>

</configuration>
-->

<net version="1.9" junctionCornerDetail="5" limitTurnSpeed="5.50" xmlns:xsi="http://www.w3.org/2001/XMLSchema-instance" xsi:noNamespaceSchemaLocation="http://sumo.dlr.de/xsd/net_file.xsd">

    <location netOffset="-231218.58,-3335748.74" convBoundary="1675.42,0.00,14315.31,13194.53" origBoundary="120.206458,30.124562,120.356769,30.258944" projParameter="+proj=utm +zone=51 +ellps=WGS84 +datum=WGS84 +units=m +no_defs"/>

    <type id="highway.bridleway" priority="1" numLanes="1" speed="2.78" allow="pedestrian" oneway="1" width="2.00"/>
    <type id="highway.bus_guideway" priority="1" numLanes="1" speed="27.78" allow="bus" oneway="1"/>
    <type id="highway.cycleway" priority="1" numLanes="1" speed="5.56" allow="bicycle" oneway="0" width="1.00"/>
    <type id="highway.footway" priority="1" numLanes="1" speed="2.78" allow="pedestrian" oneway="1" width="2.00"/>
    <type id="highway.ford" priority="1" numLanes="1" speed="2.78" allow="army" oneway="0"/>
    <type id="highway.living_street" priority="2" numLanes="1" speed="2.78" disallow="tram rail_urban rail rail_electric rail_fast ship" oneway="0"/>
    <type id="highway.motorway" priority="14" numLanes="2" speed="39.44" allow="private emergency authority army vip passenger hov taxi bus coach delivery truck trailer motorcycle evehicle custom1 custom2" oneway="1"/>
    <type id="highway.motorway_link" priority="9" numLanes="1" speed="22.22" allow="private emergency authority army vip passenger hov taxi bus coach delivery truck trailer motorcycle evehicle custom1 custom2" oneway="1"/>
    <type id="highway.path" priority="1" numLanes="1" speed="5.56" allow="pedestrian bicycle" oneway="0" width="2.00"/>
    <type id="highway.pedestrian" priority="1" numLanes="1" speed="2.78" allow="pedestrian" oneway="1" width="2.00"/>
    <type id="highway.primary" priority="12" numLanes="2" speed="27.78" disallow="tram rail_urban rail rail_electric rail_fast ship" oneway="0"/>
    <type id="highway.primary_link" priority="7" numLanes="1" speed="22.22" disallow="tram rail_urban rail rail_electric rail_fast ship" oneway="0"/>
    <type id="highway.raceway" priority="15" numLanes="2" speed="83.33" allow="vip" oneway="0"/>
    <type id="highway.residential" priority="3" numLanes="1" speed="13.89" disallow="tram rail_urban rail rail_electric rail_fast ship" oneway="0"/>
    <type id="highway.secondary" priority="11" numLanes="1" speed="27.78" disallow="tram rail_urban rail rail_electric rail_fast ship" oneway="0"/>
    <type id="highway.secondary_link" priority="6" numLanes="1" speed="22.22" disallow="tram rail_urban rail rail_electric rail_fast ship" oneway="0"/>
    <type id="highway.service" priority="1" numLanes="1" speed="5.56" allow="pedestrian delivery bicycle" oneway="0"/>
    <type id="highway.stairs" priority="1" numLanes="1" speed="1.39" allow="pedestrian" oneway="1" width="2.00"/>
    <type id="highway.step" priority="1" numLanes="1" speed="1.39" allow="pedestrian" oneway="1" width="2.00"/>
    <type id="highway.steps" priority="1" numLanes="1" speed="1.39" allow="pedestrian" oneway="1" width="2.00"/>
    <type id="highway.tertiary" priority="10" numLanes="1" speed="22.22" disallow="tram rail_urban rail rail_electric rail_fast ship" oneway="0"/>
    <type id="highway.tertiary_link" priority="5" numLanes="1" speed="22.22" disallow="tram rail_urban rail rail_electric rail_fast ship" oneway="0"/>
    <type id="highway.track" priority="1" numLanes="1" speed="5.56" allow="pedestrian motorcycle moped bicycle" oneway="0"/>
    <type id="highway.trunk" priority="13" numLanes="2" speed="27.78" disallow="pedestrian bicycle tram rail_urban rail rail_electric rail_fast ship" oneway="0"/>
    <type id="highway.trunk_link" priority="8" numLanes="1" speed="22.22" disallow="pedestrian bicycle tram rail_urban rail rail_electric rail_fast ship" oneway="0"/>
    <type id="highway.unclassified" priority="4" numLanes="1" speed="13.89" disallow="tram rail_urban rail rail_electric rail_fast ship" oneway="0"/>
    <type id="highway.unsurfaced" priority="1" numLanes="1" speed="8.33" disallow="tram rail_urban rail rail_electric rail_fast ship" oneway="0"/>
    <type id="railway.highspeed" priority="21" numLanes="1" speed="69.44" allow="rail_fast" oneway="1"/>
    <type id="railway.light_rail" priority="19" numLanes="1" speed="27.78" allow="rail_urban" oneway="1"/>
    <type id="railway.preserved" priority="16" numLanes="1" speed="27.78" allow="rail" oneway="1"/>
    <type id="railway.rail" priority="20" numLanes="1" speed="44.44" allow="rail" oneway="1"/>
    <type id="railway.subway" priority="18" numLanes="1" speed="27.78" allow="rail_urban" oneway="1"/>
    <type id="railway.tram" priority="17" numLanes="1" speed="13.89" allow="tram" oneway="1"/>

    <edge id=":1286462346_0" function="internal">
        <lane id=":1286462346_0_0" index="0" disallow="tram rail_urban rail rail_electric rail_fast ship" speed="6.76" length="9.51" shape="4624.74,9166.77 4624.17,9164.24 4622.93,9162.47 4621.02,9161.45 4618.44,9161.19"/>
    </edge>
    <edge id=":1286462346_1" function="internal">
        <lane id=":1286462346_1_0" index="0" disallow="tram rail_urban rail rail_electric rail_fast ship" speed="22.22" length="14.71" shape="4624.74,9166.77 4623.49,9152.11"/>
    </edge>
    <edge id=":1286462346_2" function="internal">
        <lane id=":1286462346_2_0" index="0" disallow="tram rail_urban rail rail_electric rail_fast ship" speed="7.92" length="14.37" shape="4624.74,9166.77 4624.99,9162.81 4626.45,9159.94 4629.13,9158.15 4633.03,9157.45"/>
    </edge>
    <edge id=":1286462346_3" function="internal">
        <lane id=":1286462346_3_0" index="0" disallow="tram rail_urban rail rail_electric rail_fast ship" speed="3.65" length="4.67" shape="4624.74,9166.77 4625.44,9165.50 4626.21,9165.04 4627.04,9165.37 4627.93,9166.50"/>
    </edge>
    <edge id=":1286462346_4" function="internal">
        <lane id=":1286462346_4_0" index="0" disallow="tram rail_urban rail rail_electric rail_fast ship" speed="6.41" length="9.04" shape="4633.14,9160.65 4630.69,9161.09 4629.00,9162.21 4628.08,9164.02 4627.93,9166.50"/>
    </edge>
    <edge id=":1286462346_5" function="internal">
        <lane id=":1286462346_5_0" index="0" disallow="tram rail_urban rail rail_electric rail_fast ship" speed="22.22" length="14.72" shape="4633.14,9160.65 4618.44,9161.19"/>
    </edge>
    <edge id=":1286462346_6" function="internal">
        <lane id=":1286462346_6_0" index="0" disallow="tram rail_urban rail rail_electric rail_fast ship" speed="8.25" length="4.12" shape="4633.14,9160.65 4629.22,9160.23 4629.06,9160.15"/>
    </edge>
    <edge id=":1286462346_7" function="internal">
        <lane id=":1286462346_7_0" index="0" disallow="tram rail_urban rail rail_electric rail_fast ship" speed="3.65" length="1.44" shape="4633.14,9160.65 4631.91,9159.89"/>
    </edge>
    <edge id=":1286462346_16" function="internal">
        <lane id=":1286462346_16_0" index="0" disallow="tram rail_urban rail rail_electric rail_fast ship" speed="8.25" length="10.40" shape="4629.06,9160.15 4626.30,9158.67 4624.39,9155.96 4623.49,9152.11"/>
    </edge>
    <edge id=":1286462346_17" function="internal">
        <lane id=":1286462346_17_0" index="0" disallow="tram rail_urban rail rail_electric rail_fast ship" speed="3.65" length="3.23" shape="4631.91,9159.89 4631.49,9159.10 4631.86,9158.29 4633.03,9157.45"/>
    </edge>
    <edge id=":1286462346_8" function="internal">
        <lane id=":1286462346_8_0" index="0" disallow="tram rail_urban rail rail_electric rail_fast ship" speed="6.80" length="9.56" shape="4626.68,9151.83 4627.27,9154.36 4628.53,9156.15 4630.44,9157.17 4633.03,9157.45"/>
    </edge>
    <edge id=":1286462346_9" function="internal">
        <lane id=":1286462346_9_0" index="0" disallow="tram rail_urban rail rail_electric rail_fast ship" speed="22.22" length="14.73" shape="4626.68,9151.83 4627.93,9166.50"/>
    </edge>
    <edge id=":1286462346_10" function="internal">
        <lane id=":1286462346_10_0" index="0" disallow="tram rail_urban rail rail_electric rail_fast ship" speed="7.91" length="14.39" shape="4626.68,9151.83 4626.46,9155.79 4625.02,9158.68 4622.34,9160.47 4618.44,9161.19"/>
    </edge>
    <edge id=":1286462346_11" function="internal">
        <lane id=":1286462346_11_0" index="0" disallow="tram rail_urban rail rail_electric rail_fast ship" speed="3.65" length="4.67" shape="4626.68,9151.83 4625.99,9153.09 4625.23,9153.56 4624.39,9153.24 4623.49,9152.11"/>
    </edge>
    <edge id=":1286462346_12" function="internal">
        <lane id=":1286462346_12_0" index="0" disallow="tram rail_urban rail rail_electric rail_fast ship" speed="6.40" length="9.04" shape="4618.32,9157.99 4620.77,9157.54 4622.45,9156.41 4623.36,9154.60 4623.49,9152.11"/>
    </edge>
    <edge id=":1286462346_13" function="internal">
        <lane id=":1286462346_13_0" index="0" disallow="tram rail_urban rail rail_electric rail_fast ship" speed="22.22" length="14.72" shape="4618.32,9157.99 4633.03,9157.45"/>
    </edge>
    <edge id=":1286462346_14" function="internal">
        <lane id=":1286462346_14_0" index="0" disallow="tram rail_urban rail rail_electric rail_fast ship" speed="8.21" length="4.14" shape="4618.32,9157.99 4622.25,9158.39 4622.42,9158.48"/>
    </edge>
    <edge id=":1286462346_15" function="internal">
        <lane id=":1286462346_15_0" index="0" disallow="tram rail_urban rail rail_electric rail_fast ship" speed="3.65" length="1.44" shape="4618.32,9157.99 4619.55,9158.74"/>
    </edge>
    <edge id=":1286462346_18" function="internal">
        <lane id=":1286462346_18_0" index="0" disallow="tram rail_urban rail rail_electric rail_fast ship" speed="8.21" length="10.37" shape="4622.42,9158.48 4625.17,9159.95 4627.06,9162.65 4627.93,9166.50"/>
    </edge>
    <edge id=":1286462346_19" function="internal">
        <lane id=":1286462346_19_0" index="0" disallow="tram rail_urban rail rail_electric rail_fast ship" speed="3.65" length="3.23" shape="4619.55,9158.74 4619.97,9159.53 4619.61,9160.34 4618.44,9161.19"/>
    </edge>
    <edge id=":1286462389_0" function="internal">
        <lane id=":1286462389_0_0" index="0" disallow="tram rail_urban rail rail_electric rail_fast ship" speed="27.78" length="14.26" shape="4197.56,8627.21 4183.31,8627.92"/>
    </edge>
    <edge id=":1286462389_1" function="internal">
        <lane id=":1286462389_1_0" index="0" disallow="tram rail_urban rail rail_electric rail_fast ship" speed="7.99" length="3.90" shape="4197.56,8627.21 4193.68,8626.80"/>
    </edge>
    <edge id=":1286462389_2" function="internal">
        <lane id=":1286462389_2_0" index="0" disallow="tram rail_urban rail rail_electric rail_fast ship" speed="3.65" length="1.44" shape="4197.56,8627.21 4196.33,8626.45"/>
    </edge>
    <edge id=":1286462389_9" function="internal">
        <lane id=":1286462389_9_0" index="0" disallow="tram rail_urban rail rail_electric rail_fast ship" speed="7.99" length="10.32" shape="4193.68,8626.80 4190.88,8625.24 4189.14,8622.54 4188.47,8618.70"/>
    </edge>
    <edge id=":1286462389_10" function="internal">
        <lane id=":1286462389_10_0" index="0" disallow="tram rail_urban rail rail_electric rail_fast ship" speed="3.65" length="3.23" shape="4196.33,8626.45 4195.90,8625.67 4196.27,8624.86 4197.45,8624.01"/>
    </edge>
    <edge id=":1286462389_3" function="internal">
        <lane id=":1286462389_3_0" index="0" disallow="tram rail_urban rail rail_electric rail_fast ship" speed="6.50" length="9.03" shape="4191.67,8618.61 4192.09,8621.05 4193.20,8622.76 4194.98,8623.75 4197.45,8624.01"/>
    </edge>
    <edge id=":1286462389_4" function="internal">
        <lane id=":1286462389_4_0" index="0" disallow="tram rail_urban rail rail_electric rail_fast ship" speed="8.09" length="14.16" shape="4191.67,8618.61 4191.25,8622.47 4189.71,8625.32 4187.07,8627.13 4183.31,8627.92"/>
    </edge>
    <edge id=":1286462389_5" function="internal">
        <lane id=":1286462389_5_0" index="0" disallow="tram rail_urban rail rail_electric rail_fast ship" speed="3.65" length="4.67" shape="4191.67,8618.61 4190.91,8619.83 4190.12,8620.26 4189.31,8619.88 4188.47,8618.70"/>
    </edge>
    <edge id=":1286462389_6" function="internal">
        <lane id=":1286462389_6_0" index="0" disallow="tram rail_urban rail rail_electric rail_fast ship" speed="6.62" length="9.13" shape="4183.11,8624.73 4185.52,8624.22 4187.22,8623.04 4188.20,8621.21 4188.47,8618.70"/>
    </edge>
    <edge id=":1286462389_7" function="internal">
        <lane id=":1286462389_7_0" index="0" disallow="tram rail_urban rail rail_electric rail_fast ship" speed="27.78" length="14.35" shape="4183.11,8624.73 4197.45,8624.01"/>
    </edge>
    <edge id=":1286462389_8" function="internal">
        <lane id=":1286462389_8_0" index="0" disallow="tram rail_urban rail rail_electric rail_fast ship" speed="3.65" length="1.44" shape="4183.11,8624.73 4184.36,8625.45"/>
    </edge>
    <edge id=":1286462389_11" function="internal">
        <lane id=":1286462389_11_0" index="0" disallow="tram rail_urban rail rail_electric rail_fast ship" speed="3.65" length="3.23" shape="4184.36,8625.45 4184.81,8626.22 4184.46,8627.05 4183.31,8627.92"/>
    </edge>
    <edge id=":1286462699_0" function="internal">
        <lane id=":1286462699_0_0" index="0" disallow="tram rail_urban rail rail_electric rail_fast ship" speed="3.65" length="4.67" shape="4529.57,8006.70 4530.24,8005.43 4531.00,8004.95 4531.84,8005.27 4532.75,8006.38"/>
    </edge>
    <edge id=":1286462788_0" function="internal">
        <lane id=":1286462788_0_0" index="0" disallow="tram rail_urban rail rail_electric rail_fast ship" speed="6.76" length="9.50" shape="4579.52,8619.37 4578.96,8616.84 4577.73,8615.06 4575.82,8614.03 4573.25,8613.76"/>
    </edge>
    <edge id=":1286462788_1" function="internal">
        <lane id=":1286462788_1_0" index="0" disallow="tram rail_urban rail rail_electric rail_fast ship" speed="22.22" length="14.71" shape="4579.52,8619.37 4578.35,8604.71"/>
    </edge>
    <edge id=":1286462788_2" function="internal">
        <lane id=":1286462788_2_0" index="0" disallow="tram rail_urban rail rail_electric rail_fast ship" speed="7.91" length="14.39" shape="4579.52,8619.37 4579.78,8615.41 4581.25,8612.54 4583.95,8610.77 4587.86,8610.10"/>
    </edge>
    <edge id=":1286462788_3" function="internal">
        <lane id=":1286462788_3_0" index="0" disallow="tram rail_urban rail rail_electric rail_fast ship" speed="3.65" length="4.67" shape="4579.52,8619.37 4580.23,8618.11 4580.99,8617.65 4581.82,8617.99 4582.71,8619.12"/>
    </edge>
    <edge id=":1286462788_4" function="internal">
        <lane id=":1286462788_4_0" index="0" disallow="tram rail_urban rail rail_electric rail_fast ship" speed="6.40" length="9.04" shape="4587.95,8613.30 4585.49,8613.72 4583.80,8614.83 4582.87,8616.63 4582.71,8619.12"/>
    </edge>
    <edge id=":1286462788_5" function="internal">
        <lane id=":1286462788_5_0" index="0" disallow="tram rail_urban rail rail_electric rail_fast ship" speed="27.78" length="14.70" shape="4587.95,8613.30 4573.25,8613.76"/>
    </edge>
    <edge id=":1286462788_6" function="internal">
        <lane id=":1286462788_6_0" index="0" disallow="tram rail_urban rail rail_electric rail_fast ship" speed="8.25" length="4.11" shape="4587.95,8613.30 4584.02,8612.85 4583.88,8612.78"/>
    </edge>
    <edge id=":1286462788_7" function="internal">
        <lane id=":1286462788_7_0" index="0" disallow="tram rail_urban rail rail_electric rail_fast ship" speed="3.65" length="1.44" shape="4587.95,8613.30 4586.73,8612.53"/>
    </edge>
    <edge id=":1286462788_16" function="internal">
        <lane id=":1286462788_16_0" index="0" disallow="tram rail_urban rail rail_electric rail_fast ship" speed="8.25" length="10.41" shape="4583.88,8612.78 4581.11,8611.27 4579.22,8608.56 4578.35,8604.71"/>
    </edge>
    <edge id=":1286462788_17" function="internal">
        <lane id=":1286462788_17_0" index="0" disallow="tram rail_urban rail rail_electric rail_fast ship" speed="3.65" length="3.23" shape="4586.73,8612.53 4586.30,8611.74 4586.68,8610.93 4587.86,8610.10"/>
    </edge>
    <edge id=":1286462788_8" function="internal">
        <lane id=":1286462788_8_0" index="0" disallow="tram rail_urban rail rail_electric rail_fast ship" speed="6.80" length="9.56" shape="4581.54,8604.45 4582.11,8606.98 4583.36,8608.77 4585.27,8609.80 4587.86,8610.10"/>
    </edge>
    <edge id=":1286462788_9" function="internal">
        <lane id=":1286462788_9_0" index="0" disallow="tram rail_urban rail rail_electric rail_fast ship" speed="22.22" length="14.72" shape="4581.54,8604.45 4582.71,8619.12"/>
    </edge>
    <edge id=":1286462788_10" function="internal">
        <lane id=":1286462788_10_0" index="0" disallow="tram rail_urban rail rail_electric rail_fast ship" speed="7.92" length="14.37" shape="4581.54,8604.45 4581.30,8608.40 4579.83,8611.27 4577.15,8613.06 4573.25,8613.76"/>
    </edge>
    <edge id=":1286462788_11" function="internal">
        <lane id=":1286462788_11_0" index="0" disallow="tram rail_urban rail rail_electric rail_fast ship" speed="3.65" length="4.67" shape="4581.54,8604.45 4580.84,8605.71 4580.07,8606.17 4579.24,8605.84 4578.35,8604.71"/>
    </edge>
    <edge id=":1286462788_12" function="internal">
        <lane id=":1286462788_12_0" index="0" disallow="tram rail_urban rail rail_electric rail_fast ship" speed="6.41" length="9.04" shape="4573.14,8610.56 4575.59,8610.12 4577.28,8609.00 4578.20,8607.19 4578.35,8604.71"/>
    </edge>
    <edge id=":1286462788_13" function="internal">
        <lane id=":1286462788_13_0" index="0" disallow="tram rail_urban rail rail_electric rail_fast ship" speed="27.78" length="14.73" shape="4573.14,8610.56 4587.86,8610.10"/>
    </edge>
    <edge id=":1286462788_14" function="internal">
        <lane id=":1286462788_14_0" index="0" disallow="tram rail_urban rail rail_electric rail_fast ship" speed="8.21" length="4.16" shape="4573.14,8610.56 4577.07,8610.98 4577.25,8611.08"/>
    </edge>
    <edge id=":1286462788_15" function="internal">
        <lane id=":1286462788_15_0" index="0" disallow="tram rail_urban rail rail_electric rail_fast ship" speed="3.65" length="1.44" shape="4573.14,8610.56 4574.37,8611.32"/>
    </edge>
    <edge id=":1286462788_18" function="internal">
        <lane id=":1286462788_18_0" index="0" disallow="tram rail_urban rail rail_electric rail_fast ship" speed="8.21" length="10.35" shape="4577.25,8611.08 4579.97,8612.54 4581.85,8615.26 4582.71,8619.12"/>
    </edge>
    <edge id=":1286462788_19" function="internal">
        <lane id=":1286462788_19_0" index="0" disallow="tram rail_urban rail rail_electric rail_fast ship" speed="3.65" length="3.23" shape="4574.37,8611.32 4574.80,8612.11 4574.42,8612.92 4573.25,8613.76"/>
    </edge>
    <edge id=":1286463120_0" function="internal">
        <lane id=":1286463120_0_0" index="0" disallow="tram rail_urban rail rail_electric rail_fast ship" speed="27.78" length="14.51" shape="4811.44,8607.01 4796.94,8607.54"/>
    </edge>
    <edge id=":1286463120_1" function="internal">
        <lane id=":1286463120_1_0" index="0" disallow="tram rail_urban rail rail_electric rail_fast ship" speed="8.21" length="4.04" shape="4811.44,8607.01 4807.65,8606.63 4807.45,8606.51"/>
    </edge>
    <edge id=":1286463120_2" function="internal">
        <lane id=":1286463120_2_0" index="0" disallow="tram rail_urban rail rail_electric rail_fast ship" speed="3.65" length="1.44" shape="4811.44,8607.01 4810.20,8606.26"/>
    </edge>
    <edge id=":1286463120_9" function="internal">
        <lane id=":1286463120_9_0" index="0" disallow="tram rail_urban rail rail_electric rail_fast ship" speed="8.21" length="10.29" shape="4807.45,8606.51 4804.81,8605.08 4802.92,8602.37 4801.98,8598.49"/>
    </edge>
    <edge id=":1286463120_10" function="internal">
        <lane id=":1286463120_10_0" index="0" disallow="tram rail_urban rail rail_electric rail_fast ship" speed="3.65" length="3.23" shape="4810.20,8606.26 4809.77,8605.48 4810.13,8604.67 4811.29,8603.81"/>
    </edge>
    <edge id=":1286463120_3" function="internal">
        <lane id=":1286463120_3_0" index="0" disallow="tram rail_urban rail rail_electric rail_fast ship" speed="6.76" length="9.39" shape="4805.16,8598.16 4805.78,8600.73 4807.00,8602.53 4808.84,8603.55 4811.29,8603.81"/>
    </edge>
    <edge id=":1286463120_4" function="internal">
        <lane id=":1286463120_4_0" index="0" disallow="tram rail_urban rail rail_electric rail_fast ship" speed="7.87" length="14.49" shape="4805.16,8598.16 4805.01,8602.17 4803.59,8605.07 4800.90,8606.86 4796.94,8607.54"/>
    </edge>
    <edge id=":1286463120_5" function="internal">
        <lane id=":1286463120_5_0" index="0" disallow="tram rail_urban rail rail_electric rail_fast ship" speed="3.65" length="4.67" shape="4805.16,8598.16 4804.49,8599.43 4803.74,8599.92 4802.90,8599.60 4801.98,8598.49"/>
    </edge>
    <edge id=":1286463120_6" function="internal">
        <lane id=":1286463120_6_0" index="0" disallow="tram rail_urban rail rail_electric rail_fast ship" speed="6.35" length="9.04" shape="4796.85,8604.35 4799.32,8603.92 4801.00,8602.80 4801.88,8600.99 4801.98,8598.49"/>
    </edge>
    <edge id=":1286463120_7" function="internal">
        <lane id=":1286463120_7_0" index="0" disallow="tram rail_urban rail rail_electric rail_fast ship" speed="27.78" length="14.45" shape="4796.85,8604.35 4811.29,8603.81"/>
    </edge>
    <edge id=":1286463120_8" function="internal">
        <lane id=":1286463120_8_0" index="0" disallow="tram rail_urban rail rail_electric rail_fast ship" speed="3.65" length="1.44" shape="4796.85,8604.35 4798.07,8605.11"/>
    </edge>
    <edge id=":1286463120_11" function="internal">
        <lane id=":1286463120_11_0" index="0" disallow="tram rail_urban rail rail_electric rail_fast ship" speed="3.65" length="3.23" shape="4798.07,8605.11 4798.50,8605.90 4798.12,8606.71 4796.94,8607.54"/>
    </edge>
    <edge id=":1668711790_0" function="internal">
        <lane id=":1668711790_0_0" index="0" disallow="tram rail_urban rail rail_electric rail_fast ship" speed="3.65" length="4.67" shape="2161.37,8847.37 2160.15,8846.60 2159.73,8845.81 2160.11,8845.00 2161.29,8844.17"/>
    </edge>
    <edge id=":2059544966_0" function="internal">
        <lane id=":2059544966_0_0" index="0" disallow="tram rail_urban rail rail_electric rail_fast ship" speed="3.65" length="4.67" shape="5986.04,9922.58 5987.38,9923.12 5987.94,9923.82 5987.71,9924.69 5986.70,9925.72"/>
    </edge>
    <edge id=":2395874691_0" function="internal">
        <lane id=":2395874691_0_0" index="0" disallow="tram rail_urban rail rail_electric rail_fast ship" speed="6.43" length="9.03" shape="3536.42,8662.53 3536.05,8660.07 3534.97,8658.35 3533.20,8657.37 3530.72,8657.13"/>
    </edge>
    <edge id=":2395874691_1" function="internal">
        <lane id=":2395874691_1_0" index="0" disallow="tram rail_urban rail rail_electric rail_fast ship" speed="27.78" length="14.58" shape="3536.42,8662.53 3536.26,8647.95"/>
    </edge>
    <edge id=":2395874691_2" function="internal">
        <lane id=":2395874691_2_0" index="0" disallow="tram rail_urban rail rail_electric rail_fast ship" speed="8.13" length="4.10" shape="3536.42,8662.53 3536.94,8658.63 3537.02,8658.49"/>
    </edge>
    <edge id=":2395874691_3" function="internal">
        <lane id=":2395874691_3_0" index="0" disallow="tram rail_urban rail rail_electric rail_fast ship" speed="3.65" length="1.44" shape="3536.42,8662.53 3537.21,8661.33"/>
    </edge>
    <edge id=":2395874691_16" function="internal">
        <lane id=":2395874691_16_0" index="0" disallow="tram rail_urban rail rail_electric rail_fast ship" speed="8.13" length="10.28" shape="3537.02,8658.49 3538.57,8655.80 3541.32,8654.03 3545.17,8653.34"/>
    </edge>
    <edge id=":2395874691_17" function="internal">
        <lane id=":2395874691_17_0" index="0" disallow="tram rail_urban rail rail_electric rail_fast ship" speed="3.65" length="3.23" shape="3537.21,8661.33 3538.01,8660.92 3538.81,8661.31 3539.62,8662.50"/>
    </edge>
    <edge id=":2395874691_4" function="internal">
        <lane id=":2395874691_4_0" index="0" disallow="tram rail_urban rail rail_electric rail_fast ship" speed="6.66" length="9.33" shape="3545.29,8656.54 3542.79,8656.99 3541.01,8658.13 3539.96,8659.97 3539.62,8662.50"/>
    </edge>
    <edge id=":2395874691_5" function="internal">
        <lane id=":2395874691_5_0" index="0" disallow="tram rail_urban rail rail_electric rail_fast ship" speed="27.78" length="14.58" shape="3545.29,8656.54 3530.72,8657.13"/>
    </edge>
    <edge id=":2395874691_6" function="internal">
        <lane id=":2395874691_6_0" index="0" disallow="tram rail_urban rail rail_electric rail_fast ship" speed="7.96" length="4.05" shape="3545.29,8656.54 3541.38,8656.12 3541.27,8656.06"/>
    </edge>
    <edge id=":2395874691_7" function="internal">
        <lane id=":2395874691_7_0" index="0" disallow="tram rail_urban rail rail_electric rail_fast ship" speed="3.65" length="1.44" shape="3545.29,8656.54 3544.06,8655.78"/>
    </edge>
    <edge id=":2395874691_18" function="internal">
        <lane id=":2395874691_18_0" index="0" disallow="tram rail_urban rail rail_electric rail_fast ship" speed="7.96" length="10.23" shape="3541.27,8656.06 3538.58,8654.55 3536.87,8651.83 3536.26,8647.95"/>
    </edge>
    <edge id=":2395874691_19" function="internal">
        <lane id=":2395874691_19_0" index="0" disallow="tram rail_urban rail rail_electric rail_fast ship" speed="3.65" length="3.23" shape="3544.06,8655.78 3543.63,8655.00 3544.00,8654.18 3545.17,8653.34"/>
    </edge>
    <edge id=":2395874691_8" function="internal">
        <lane id=":2395874691_8_0" index="0" disallow="tram rail_urban rail rail_electric rail_fast ship" speed="6.46" length="9.03" shape="3539.46,8647.91 3539.85,8650.36 3540.93,8652.08 3542.70,8653.08 3545.17,8653.34"/>
    </edge>
    <edge id=":2395874691_9" function="internal">
        <lane id=":2395874691_9_0" index="0" disallow="tram rail_urban rail rail_electric rail_fast ship" speed="27.78" length="14.60" shape="3539.46,8647.91 3539.62,8662.50"/>
    </edge>
    <edge id=":2395874691_10" function="internal">
        <lane id=":2395874691_10_0" index="0" disallow="tram rail_urban rail rail_electric rail_fast ship" speed="8.15" length="4.11" shape="3539.46,8647.91 3538.96,8651.79 3538.86,8651.96"/>
    </edge>
    <edge id=":2395874691_11" function="internal">
        <lane id=":2395874691_11_0" index="0" disallow="tram rail_urban rail rail_electric rail_fast ship" speed="3.65" length="1.44" shape="3539.46,8647.91 3538.68,8649.12"/>
    </edge>
    <edge id=":2395874691_20" function="internal">
        <lane id=":2395874691_20_0" index="0" disallow="tram rail_urban rail rail_electric rail_fast ship" speed="8.15" length="10.28" shape="3538.86,8651.96 3537.34,8654.62 3534.59,8656.40 3530.72,8657.13"/>
    </edge>
    <edge id=":2395874691_21" function="internal">
        <lane id=":2395874691_21_0" index="0" disallow="tram rail_urban rail rail_electric rail_fast ship" speed="3.65" length="3.23" shape="3538.68,8649.12 3537.88,8649.53 3537.08,8649.14 3536.26,8647.95"/>
    </edge>
    <edge id=":2395874691_12" function="internal">
        <lane id=":2395874691_12_0" index="0" disallow="tram rail_urban rail rail_electric rail_fast ship" speed="6.68" length="9.35" shape="3530.58,8653.93 3533.09,8653.46 3534.88,8652.31 3535.94,8650.47 3536.26,8647.95"/>
    </edge>
    <edge id=":2395874691_13" function="internal">
        <lane id=":2395874691_13_0" index="0" disallow="tram rail_urban rail rail_electric rail_fast ship" speed="27.78" length="14.61" shape="3530.58,8653.93 3545.17,8653.34"/>
    </edge>
    <edge id=":2395874691_14" function="internal">
        <lane id=":2395874691_14_0" index="0" disallow="tram rail_urban rail rail_electric rail_fast ship" speed="7.94" length="4.13" shape="3530.58,8653.93 3534.51,8654.32 3534.66,8654.40"/>
    </edge>
    <edge id=":2395874691_15" function="internal">
        <lane id=":2395874691_15_0" index="0" disallow="tram rail_urban rail rail_electric rail_fast ship" speed="3.65" length="1.44" shape="3530.58,8653.93 3531.81,8654.68"/>
    </edge>
    <edge id=":2395874691_22" function="internal">
        <lane id=":2395874691_22_0" index="0" disallow="tram rail_urban rail rail_electric rail_fast ship" speed="7.94" length="10.20" shape="3534.66,8654.40 3537.32,8655.87 3539.03,8658.60 3539.62,8662.50"/>
    </edge>
    <edge id=":2395874691_23" function="internal">
        <lane id=":2395874691_23_0" index="0" disallow="tram rail_urban rail rail_electric rail_fast ship" speed="3.65" length="3.23" shape="3531.81,8654.68 3532.25,8655.46 3531.88,8656.28 3530.72,8657.13"/>
    </edge>
    <edge id=":2395874695_0" function="internal">