<?xml version="1.0" encoding="UTF-8"?>

<!-- generated on 2022-10-08 08:37:35.583222 by osmWebWizard.py v1_14_1+0000-f654d7b963e
<configuration>
    <allow-fringe.min-length value="1000.0"/>
    <end value="3600"/>
    <fringe-factor value="10.0"/>
    <fringe-start-attributes value="departSpeed=&quot;max&quot;"/>
    <lanes value="True"/>
    <min-distance value="300.0"/>
    <net-file value="C:\Users\yuyi\2022-10-08-08-37-22\osm.net.xml"/>
    <period value="1.0070981959346463"/>
    <route-file value="C:\Users\yuyi\2022-10-08-08-37-22\osm.passenger.rou.xml"/>
    <trip-attributes value="departLane=&quot;best&quot;"/>
    <output-trip-file value="C:\Users\yuyi\2022-10-08-08-37-22\osm.passenger.trips.xml"/>
    <prefix value="veh"/>
    <validate value="True"/>
    <vehicle-class value="passenger"/>
</configuration>
-->

<!-- generated on 2022-10-08 08:37:35 by Eclipse SUMO duarouter Version 1.14.1
<configuration xmlns:xsi="http://www.w3.org/2001/XMLSchema-instance" xsi:noNamespaceSchemaLocation="http://sumo.dlr.de/xsd/duarouterConfiguration.xsd">

    <input>
        <net-file value="C:\Users\yuyi\2022-10-08-08-37-22\osm.net.xml"/>
        <route-files value="C:\Users\yuyi\2022-10-08-08-37-22\osm.passenger.trips.xml"/>
    </input>

    <output>
        <output-file value="C:\Users\yuyi\2022-10-08-08-37-22\osm.passenger.trips.xml.tmp"/>
        <alternatives-output value="NUL"/>
        <write-trips value="true"/>
    </output>

    <time>
        <begin value="0"/>
        <end value="3600"/>
    </time>

    <report>
        <no-warnings value="true"/>
        <ignore-errors value="true"/>
        <no-step-log value="true"/>
    </report>

</configuration>
-->

<routes xmlns:xsi="http://www.w3.org/2001/XMLSchema-instance" xsi:noNamespaceSchemaLocation="http://sumo.dlr.de/xsd/routes_file.xsd">
    <vType id="veh_passenger" vClass="passenger"/>
    <trip id="veh1" type="veh_passenger" depart="1.01" departLane="best" from="1069574888#3" to="-641126492#3"/>
    <trip id="veh2" type="veh_passenger" depart="2.01" departLane="best" departSpeed="max" from="607102867" to="519323440#2"/>
    <trip id="veh3" type="veh_passenger" depart="3.02" departLane="best" from="834989739#1" to="-231177199#0"/>
    <trip id="veh4" type="veh_passenger" depart="4.03" departLane="best" from="154646651#6" to="-1012707127"/>
    <trip id="veh7" type="veh_passenger" depart="7.05" departLane="best" from="532529595#4" to="353612862#10"/>
    <trip id="veh9" type="veh_passenger" depart="9.06" departLane="best" departSpeed="max" from="832516003" to="-1009909875#4"/>
    <trip id="veh10" type="veh_passenger" depart="10.07" departLane="best" departSpeed="max" from="832516003" to="519323443#1"/>
    <trip id="veh11" type="veh_passenger" depart="11.08" departLane="best" from="154261209#3" to="-388471074"/>
    <trip id="veh12" type="veh_passenger" depart="12.09" departLane="best" from="965584933" to="1015040648"/>
    <trip id="veh13" type="veh_passenger" depart="13.09" departLane="best" from="-519323438#1" to="-231177199#6"/>
    <trip id="veh14" type="veh_passenger" depart="14.10" departLane="best" from="833493243#1" to="353612863#1"/>
    <trip id="veh15" type="veh_passenger" depart="15.11" departLane="best" departSpeed="max" from="832516003" to="532529595#8"/>
    <trip id="veh16" type="veh_passenger" depart="16.11" departLane="best" departSpeed="max" from="388471074" to="834989740#5"/>
    <trip id="veh17" type="veh_passenger" depart="17.12" departLane="best" departSpeed="max" from="154646651#0" to="353612862#10"/>
    <trip id="veh18" type="veh_passenger" depart="18.13" departLane="best" departSpeed="max" from="832516003" to="353612863#1"/>
    <trip id="veh19" type="veh_passenger" depart="19.13" departLane="best" from="834985795#1" to="353612862#2"/>
    <trip id="veh20" type="veh_passenger" depart="20.14" departLane="best" from="580853946#5" to="-113467509#1"/>
    <trip id="veh21" type="veh_passenger" depart="21.15" departLane="best" departSpeed="max" from="-388982898#2" to="-641843738#4"/>
    <trip id="veh22" type="veh_passenger" depart="22.16" departLane="best" from="-519323441#0" to="1009909876"/>
    <trip id="veh23" type="veh_passenger" depart="23.16" departLane="best" from="519323446" to="1069574886#3"/>
    <trip id="veh25" type="veh_passenger" depart="25.18" departLane="best" from="1015040650#5" to="834985796#5"/>
    <trip id="veh26" type="veh_passenger" depart="26.18" departLane="best" from="532529595#4" to="353612863#1"/>
    <trip id="veh27" type="veh_passenger" depart="27.19" departLane="best" from="-641843738#3" to="1069574886#3"/>
    <trip id="veh28" type="veh_passenger" depart="28.20" departLane="best" departSpeed="max" from="975866592" to="388982898#2"/>
    <trip id="veh29" type="veh_passenger" depart="29.21" departLane="best" departSpeed="max" from="388982897#0" to="519323443#1"/>
    <trip id="veh30" type="veh_passenger" depart="30.21" departLane="best" from="832517451#6" to="580853940"/>
    <trip id="veh32" type="veh_passenger" depart="32.23" departLane="best" departSpeed="max" from="113467539#0" to="-965584938#0"/>
    <trip id="veh33" type="veh_passenger" depart="33.23" departLane="best" from="1009909876" to="834989736#3"/>
    <trip id="veh34" type="veh_passenger" depart="34.24" departLane="best" departSpeed="max" from="834985796#0" to="1015040609#6"/>
    <trip id="veh35" type="veh_passenger" depart="35.25" departLane="best" from="532529595#6" to="1069574888#3"/>
    <trip id="veh36" type="veh_passenger" depart="36.26" departLane="best" departSpeed="max" from="834989740#0" to="154646651#11"/>
    <trip id="veh37" type="veh_passenger" depart="37.26" departLane="best" from="1015040650#5" to="-832118418#0"/>
    <trip id="veh38" type="veh_passenger" depart="38.27" departLane="best" departSpeed="max" from="388982897#0" to="-965584933"/>
    <trip id="veh39" type="veh_passenger" depart="39.28" departLane="best" departSpeed="max" from="505097816#0" to="833493241#1"/>
    <trip id="veh40" type="veh_passenger" depart="40.28" departLane="best" departSpeed="max" from="154646651#0" to="-580853940"/>
    <trip id="veh41" type="veh_passenger" depart="41.29" departLane="best" departSpeed="max" from="975866592" to="154646651#8"/>
    <trip id="veh42" type="veh_passenger" depart="42.30" departLane="best" from="-519323436#3" to="-113467509#1"/>
    <trip id="veh43" type="veh_passenger" depart="43.31" departLane="best" from="-519323444" to="388982895"/>
    <trip id="veh44" type="veh_passenger" depart="44.31" departLane="best" from="832118418#1" to="113467440#4"/>
    <trip id="veh45" type="veh_passenger" depart="45.32" departLane="best" from="-388982897#3" to="1069574886#3"/>
    <trip id="veh46" type="veh_passenger" depart="46.33" departLane="best" departSpeed="max" from="975866592" to="250490019#2"/>
    <trip id="veh47" type="veh_passenger" depart="47.33" departLane="best" departSpeed="max" from="970321804" to="830627880#1"/>
    <trip id="veh49" type="veh_passenger" depart="49.35" departLane="best" departSpeed="max" from="580853946#0" to="353612862#0"/>
    <trip id="veh50" type="veh_passenger" depart="50.35" departLane="best" from="1015040650#5" to="388982898#2"/>
    <trip id="veh51" type="veh_passenger" depart="51.36" departLane="best" from="-519323446" to="113467509#0"/>
    <trip id="veh52" type="veh_passenger" depart="52.37" departLane="best" from="231177199#4" to="834989739#5"/>
    <trip id="veh53" type="veh_passenger" depart="53.38" departLane="best" departSpeed="max" from="834985796#0" to="-965584933"/>
    <trip id="veh54" type="veh_passenger" depart="54.38" departLane="best" from="353612862#5" to="-388982897#2"/>
    <trip id="veh55" type="veh_passenger" depart="55.39" departLane="best" departSpeed="max" from="834989740#0" to="832117361#2"/>
    <trip id="veh56" type="veh_passenger" depart="56.40" departLane="best" departSpeed="max" from="113467509#0" to="388982898#2"/>
    <trip id="veh57" type="veh_passenger" depart="57.40" departLane="best" from="505097816#7" to="-388471074"/>
    <trip id="veh58" type="veh_passenger" depart="58.41" departLane="best" from="641843738#8" to="353612862#0"/>
    <trip id="veh59" type="veh_passenger" depart="59.42" departLane="best" departSpeed="max" from="827278173#0" to="250490019#3"/>
    <trip id="veh60" type="veh_passenger" depart="60.43" departLane="best" from="-1009909875#0" to="1015040610"/>
    <trip id="veh62" type="veh_passenger" depart="62.44" departLane="best" departSpeed="max" from="834985796#0" to="641126492#6"/>
    <trip id="veh63" type="veh_passenger" depart="63.45" departLane="best" departSpeed="max" from="834985796#0" to="834989739#2"/>
    <trip id="veh64" type="veh_passenger" depart="64.45" departLane="best" departSpeed="max" from="-388982898#2" to="154646651#11"/>
    <trip id="veh65" type="veh_passenger" depart="65.46" departLane="best" departSpeed="max" from="-388982898#2" to="532529595#9"/>
    <trip id="veh66" type="veh_passenger" depart="66.47" departLane="best" departSpeed="max" from="827278173#0" to="-388470139"/>
    <trip id="veh67" type="veh_passenger" depart="67.48" departLane="best" departSpeed="max" from="250490019#0" to="353612862#10"/>
    <trip id="veh68" type="veh_passenger" depart="68.48" departLane="best" from="154646651#7" to="-519323446"/>
    <trip id="veh69" type="veh_passenger" depart="69.49" departLane="best" departSpeed="max" from="388471074" to="532529595#8"/>
    <trip id="veh70" type="veh_passenger" depart="70.50" departLane="best" from="-965584938#0" to="1015040609#4"/>
    <trip id="veh71" type="veh_passenger" depart="71.50" departLane="best" departSpeed="max" from="975866592" to="388982898#2"/>
    <trip id="veh72" type="veh_passenger" depart="72.51" departLane="best" departSpeed="max" from="231177199#0" to="231177199#2"/>
    <trip id="veh73" type="veh_passenger" depart="73.52" departLane="best" departSpeed="max" from="-580853940" to="-641126492#3"/>
    <trip id="veh74" type="veh_passenger" depart="74.53" departLane="best" from="154261209#0" to="353612862#7"/>
    <trip id="veh76" type="veh_passenger" depart="76.54" departLane="best" departSpeed="max" from="-388982898#2" to="388982897#2"/>
    <trip id="veh78" type="veh_passenger" depart="78.55" departLane="best" from="834985793#1" to="-113467539#0"/>
    <trip id="veh79" type="veh_passenger" depart="79.56" departLane="best" from="1012707127" to="519323438#1"/>
    <trip id="veh81" type="veh_passenger" depart="81.57" departLane="best" departSpeed="max" from="86096921" to="353612862#10"/>
    <trip id="veh82" type="veh_passenger" depart="82.58" departLane="best" departSpeed="max" from="250490019#0" to="580853946#2"/>
    <trip id="veh83" type="veh_passenger" depart="83.59" departLane="best" departSpeed="max" from="832516003" to="-519323436#3"/>
    <trip id="veh84" type="veh_passenger" depart="84.60" departLane="best" from="-519323440#0" to="113467440#4"/>
    <trip id="veh85" type="veh_passenger" depart="85.60" departLane="best" from="154646651#7" to="154646651#11"/>
    <trip id="veh86" type="veh_passenger" depart="86.61" departLane="best" departSpeed="max" from="607102867" to="519323439#0"/>
    <trip id="veh87" type="veh_passenger" depart="87.62" departLane="best" departSpeed="max" from="975866592" to="-231177199#7"/>
    <trip id="veh88" type="veh_passenger" depart="88.62" departLane="best" departSpeed="max" from="154646651#0" to="1015040650#2"/>
    <trip id="veh89" type="veh_passenger" depart="89.63" departLane="best" from="834985795#1" to="-832118418#1"/>
    <trip id="veh90" type="veh_passenger" depart="90.64" departLane="best" from="-833493243#0" to="154261209#8"/>
    <trip id="veh91" type="veh_passenger" depart="91.65" departLane="best" from="154646651#6" to="1009909876"/>
    <trip id="veh93" type="veh_passenger" depart="93.66" departLane="best" departSpeed="max" from="231177199#0" to="830627880#1"/>
    <trip id="veh94" type="veh_passenger" depart="94.67" departLane="best" departSpeed="max" from="388982897#0" to="-113467509#1"/>
    <trip id="veh95" type="veh_passenger" depart="95.67" departLane="best" departSpeed="max" from="975866592" to="641126492#6"/>
    <trip id="veh96" type="veh_passenger" depart="96.68" departLane="best" departSpeed="max" from="970321804" to="834985795#3"/>
    <trip id="veh97" type="veh_passenger" depart="97.69" departLane="best" from="833493243#1" to="-388982897#0"/>
    <trip id="veh98" type="veh_passenger" depart="98.70" departLane="best" from="353612855#1" to="-519323447#0"/>
    <trip id="veh99" type="veh_passenger" depart="99.70" departLane="best" departSpeed="max" from="154646651#0" to="-113467539#0"/>
    <trip id="veh101" type="veh_passenger" depart="101.72" departLane="best" from="1015040650#5" to="580853946#2"/>
    <trip id="veh102" type="veh_passenger" depart="102.72" departLane="best" from="231177199#5" to="113467440#4"/>
    <trip id="veh104" type="veh_passenger" depart="104.74" departLane="best" departSpeed="max" from="388982897#0" to="532529595#4"/>
    <trip id="veh106" type="veh_passenger" depart="106.75" departLane="best" departSpeed="max" from="970321804" to="353612862#3"/>
    <trip id="veh107" type="veh_passenger" depart="107.76" departLane="best" from="388982895" to="532529595#9"/>
    <trip id="veh108" type="veh_passenger" depart="108.77" departLane="best" from="-353612854#2" to="353612862#5"/>
    <trip id="veh109" type="veh_passenger" depart="109.77" departLane="best" from="353612862#7" to="830627880#1"/>
    <trip id="veh110" type="veh_passenger" depart="110.78" departLane="best" departSpeed="max" from="-641126492#6" to="834989739#5"/>
    <trip id="veh111" type="veh_passenger" depart="111.79" departLane="best" departSpeed="max" from="-388982898#2" to="-519323436#0"/>
    <trip id="veh112" type="veh_passenger" depart="112.79" departLane="best" departSpeed="max" from="505097816#0" to="519323440#0"/>
    <trip id="veh114" type="veh_passenger" depart="114.81" departLane="best" from="834989738#1" to="-832118418#0"/>
    <trip id="veh115" type="veh_passenger" depart="115.82" departLane="best" departSpeed="max" from="505097816#0" to="353612863#1"/>
    <trip id="veh116" type="veh_passenger" depart="116.82" departLane="best" from="154646651#6" to="353612862#5"/>
    <trip id="veh117" type="veh_passenger" depart="117.83" departLane="best" departSpeed="max" from="388470139" to="834985796#2"/>
    <trip id="veh118" type="veh_passenger" depart="118.84" departLane="best" from="1009909875#0" to="532529595#3"/>
    <trip id="veh119" type="veh_passenger" depart="119.84" departLane="best" from="1015040609#1" to="1069574888#3"/>
    <trip id="veh121" type="veh_passenger" depart="121.86" departLane="best" departSpeed="max" from="113467539#0" to="532529595#9"/>
    <trip id="veh122" type="veh_passenger" depart="122.87" departLane="best" departSpeed="max" from="-388982898#2" to="154646651#11"/>
    <trip id="veh123" type="veh_passenger" depart="123.87" departLane="best" departSpeed="max" from="-388982898#2" to="-519323447#0"/>
    <trip id="veh124" type="veh_passenger" depart="124.88" departLane="best" from="1015040650#5" to="834985796#2"/>
    <trip id="veh125" type="veh_passenger" depart="125.89" departLane="best" from="834985796#2" to="832118418#2"/>
    <trip id="veh127" type="veh_passenger" depart="127.90" departLane="best" from="832517451#2" to="519323445#0"/>
    <trip id="veh129" type="veh_passenger" depart="129.92" departLane="best" from="532529595#6" to="-1009909876"/>
    <trip id="veh131" type="veh_passenger" depart="131.93" departLane="best" departSpeed="max" from="580853946#0" to="834985796#6"/>
    <trip id="veh132" type="veh_passenger" depart="132.94" departLane="best" departSpeed="max" from="-580853940" to="-250490019#0"/>
    <trip id="veh133" type="veh_passenger" depart="133.94" departLane="best" from="-519323442#3" to="353612862#10"/>
    <trip id="veh134" type="veh_passenger" depart="134.95" departLane="best" from="1069574888#2" to="353612863#1"/>
    <trip id="veh135" type="veh_passenger" depart="135.96" departLane="best" departSpeed="max" from="607102867" to="-519323442#0"/>
    <trip id="veh136" type="veh_passenger" depart="136.97" departLane="best" from="519323445#0" to="-965584933"/>
    <trip id="veh137" type="veh_passenger" depart="137.97" departLane="best" from="353612862#0" to="833493243#6"/>
    <trip id="veh138" type="veh_passenger" depart="138.98" departLane="best" from="833493241#1" to="-231177199#3"/>
    <trip id="veh139" type="veh_passenger" depart="139.99" departLane="best" from="154646651#7" to="1009909875#4"/>
    <trip id="veh140" type="veh_passenger" depart="140.99" departLane="best" from="-1009909875#3" to="580853940"/>
    <trip id="veh141" type="veh_passenger" depart="142.00" departLane="best" from="519323447#1" to="-833493243#5"/>
    <trip id="veh142" type="veh_passenger" depart="143.01" departLane="best" departSpeed="max" from="607102867" to="353612862#10"/>
    <trip id="veh144" type="veh_passenger" depart="145.02" departLane="best" departSpeed="max" from="-388982898#2" to="832517451#1"/>
    <trip id="veh145" type="veh_passenger" depart="146.03" departLane="best" departSpeed="max" from="834989740#0" to="353612862#10"/>
    <trip id="veh146" type="veh_passenger" depart="147.04" departLane="best" from="832517451#2" to="353612862#5"/>
    <trip id="veh147" type="veh_passenger" depart="148.04" departLane="best" departSpeed="max" from="-641126492#6" to="-388470139"/>
    <trip id="veh148" type="veh_passenger" depart="149.05" departLane="best" departSpeed="max" from="113467539#0" to="833493243#1"/>
    <trip id="veh149" type="veh_passenger" depart="150.06" departLane="best" departSpeed="max" from="832516003" to="830627880#1"/>
    <trip id="veh150" type="veh_passenger" depart="151.06" departLane="best" departSpeed="max" from="834989740#0" to="-519323445#0"/>
    <trip id="veh152" type="veh_passenger" depart="153.08" departLane="best" departSpeed="max" from="827278173#0" to="832517451#1"/>
    <trip id="veh153" type="veh_passenger" depart="154.09" departLane="best" from="154646651#1" to="353612863#1"/>
    <trip id="veh154" type="veh_passenger" depart="155.09" departLane="best" departSpeed="max" from="-641126492#6" to="834985795#3"/>
    <trip id="veh155" type="veh_passenger" depart="156.10" departLane="best" departSpeed="max" from="834985796#0" to="965584934"/>
    <trip id="veh156" type="veh_passenger" depart="157.11" departLane="best" departSpeed="max" from="832516003" to="832137734"/>
    <trip id="veh158" type="veh_passenger" depart="159.12" departLane="best" departSpeed="max" from="154261208" to="834985795#3"/>
    <trip id="veh159" type="veh_passenger" depart="160.13" departLane="best" departSpeed="max" from="832516003" to="830627880#1"/>
    <trip id="veh160" type="veh_passenger" depart="161.14" departLane="best" departSpeed="max" from="832516003" to="-965584936#1"/>
    <trip id="veh161" type="veh_passenger" depart="162.14" departLane="best" from="832117945#2" to="-250490019#0"/>
    <trip id="veh162" type="veh_passenger" depart="163.15" departLane="best" departSpeed="max" from="834985796#0" to="830627880#1"/>
    <trip id="veh164" type="veh_passenger" depart="165.16" departLane="best" from="231177199#8" to="1012707127"/>
    <trip id="veh166" type="veh_passenger" depart="167.18" departLane="best" departSpeed="max" from="154261208" to="830627880#1"/>
    <trip id="veh167" type="veh_passenger" depart="168.19" departLane="best" departSpeed="max" from="970321804" to="1009909876"/>
    <trip id="veh168" type="veh_passenger" depart="169.19" departLane="best" from="532529595#2" to="113467440#4"/>
    <trip id="veh169" type="veh_passenger" depart="170.20" departLane="best" departSpeed="max" from="970321804" to="353612855#1"/>
    <trip id="veh170" type="veh_passenger" depart="171.21" departLane="best" departSpeed="max" from="86096921" to="-250490019#0"/>
    <trip id="veh171" type="veh_passenger" depart="172.21" departLane="best" departSpeed="max" from="970321804" to="-388982897#2"/>
    <trip id="veh172" type="veh_passenger" depart="173.22" departLane="best" from="965584936#2" to="-965584936#0"/>
    <trip id="veh173" type="veh_passenger" depart="174.23" departLane="best" from="-519323444" to="113467509#0"/>
    <trip id="veh174" type="veh_passenger" depart="175.24" departLane="best" departSpeed="max" from="607102867" to="1015040609#5"/>
    <trip id="veh175" type="veh_passenger" depart="176.24" departLane="best" from="505097816#4" to="154646651#8"/>
    <trip id="veh176" type="veh_passenger" depart="177.25" departLane="best" departSpeed="max" from="154646651#0" to="353612862#2"/>
    <trip id="veh177" type="veh_passenger" depart="178.26" departLane="best" from="1015040650#2" to="519323447#2"/>
    <trip id="veh178" type="veh_passenger" depart="179.26" departLane="best" from="-1009909875#0" to="834985795#3"/>
    <trip id="veh179" type="veh_passenger" depart="180.27" departLane="best" departSpeed="max" from="388471074" to="532529595#4"/>
    <trip id="veh180" type="veh_passenger" depart="181.28" departLane="best" departSpeed="max" from="607102867" to="519323438#1"/>
    <trip id="veh181" type="veh_passenger" depart="182.28" departLane="best" departSpeed="max" from="154489972" to="-113467539#0"/>
    <trip id="veh182" type="veh_passenger" depart="183.29" departLane="best" departSpeed="max" from="580853946#0" to="1015040610"/>
    <trip id="veh183" type="veh_passenger" depart="184.30" departLane="best" departSpeed="max" from="113467539#0" to="641843738#8"/>
    <trip id="veh185" type="veh_passenger" depart="186.31" departLane="best" departSpeed="max" from="113467539#0" to="113467440#4"/>
    <trip id="veh187" type="veh_passenger" depart="188.33" departLane="best" departSpeed="max" from="-580853940" to="113467440#4"/>
    <trip id="veh188" type="veh_passenger" depart="189.33" departLane="best" departSpeed="max" from="86096921" to="519323440#2"/>
    <trip id="veh189" type="veh_passenger" depart="190.34" departLane="best" departSpeed="max" from="834989740#0" to="353612863#1"/>
    <trip id="veh190" type="veh_passenger" depart="191.35" departLane="best" departSpeed="max" from="113467509#0" to="353612862#10"/>
    <trip id="veh192" type="veh_passenger" depart="193.36" departLane="best" from="154646651#9" to="353612862#3"/>
    <trip id="veh193" type="veh_passenger" depart="194.37" departLane="best" from="532529595#6" to="154646651#11"/>
    <trip id="veh194" type="veh_passenger" depart="195.38" departLane="best" departSpeed="max" from="231177199#0" to="-519323447#0"/>
    <trip id="veh195" type="veh_passenger" depart="196.38" departLane="best" departSpeed="max" from="250490019#0" to="833493243#2"/>
    <trip id="veh196" type="veh_passenger" depart="197.39" departLane="best" departSpeed="max" from="832516003" to="-388982897#0"/>
    <trip id="veh197" type="veh_passenger" depart="198.40" departLane="best" departSpeed="max" from="-388982898#2" to="154646651#9"/>
    <trip id="veh198" type="veh_passenger" depart="199.41" departLane="best" from="519323445#0" to="1015040635#1"/>
    <trip id="veh199" type="veh_passenger" depart="200.41" departLane="best" departSpeed="max" from="832516003" to="532529595#9"/>
    <trip id="veh200" type="veh_passenger" depart="201.42" departLane="best" departSpeed="max" from="580853946#0" to="-641126492#3"/>
    <trip id="veh202" type="veh_passenger" depart="203.43" departLane="best" from="1015040609#4" to="154646651#11"/>
    <trip id="veh203" type="veh_passenger" depart="204.44" departLane="best" from="833493243#2" to="-231177199#0"/>
    <trip id="veh204" type="veh_passenger" depart="205.45" departLane="best" from="154646651#4" to="388982897#2"/>
    <trip id="veh205" type="veh_passenger" depart="206.46" departLane="best" from="-833493243#5" to="519323443#1"/>
    <trip id="veh206" type="veh_passenger" depart="207.46" departLane="best" from="353612862#3" to="-832117945#1"/>
    <trip id="veh207" type="veh_passenger" depart="208.47" departLane="best" from="532529595#6" to="-1009909875#4"/>
    <trip id="veh208" type="veh_passenger" depart="209.48" departLane="best" from="641126492#4" to="580853940"/>
    <trip id="veh209" type="veh_passenger" depart="210.48" departLane="best" from="-519323442#3" to="113467440#4"/>
    <trip id="veh210" type="veh_passenger" depart="211.49" departLane="best" from="-832117361#4" to="834989739#5"/>
    <trip id="veh211" type="veh_passenger" depart="212.50" departLane="best" departSpeed="max" from="388470139" to="-113467509#1"/>
    <trip id="veh213" type="veh_passenger" depart="214.51" departLane="best" from="231177199#6" to="641126490"/>
    <trip id="veh215" type="veh_passenger" depart="216.53" departLane="best" departSpeed="max" from="505097816#0" to="834989739#3"/>
    <trip id="veh216" type="veh_passenger" depart="217.53" departLane="best" from="834989738#1" to="353612863#1"/>
    <trip id="veh217" type="veh_passenger" depart="218.54" departLane="best" departSpeed="max" from="607102867" to="154646651#6"/>
    <trip id="veh218" type="veh_passenger" depart="219.55" departLane="best" from="832517451#1" to="353612862#10"/>
    <trip id="veh220" type="veh_passenger" depart="221.56" departLane="best" departSpeed="max" from="250490019#0" to="-833493243#4"/>
    <trip id="veh221" type="veh_passenger" depart="222.57" departLane="best" from="1015040609#6" to="388982898#2"/>
    <trip id="veh222" type="veh_passenger" depart="223.58" departLane="best" departSpeed="max" from="827278173#0" to="231177199#4"/>
    <trip id="veh223" type="veh_passenger" depart="224.58" departLane="best" from="519323442#0" to="1009909875#3"/>
    <trip id="veh225" type="veh_passenger" depart="226.60" departLane="best" from="1069574888#2" to="1015040610"/>
    <trip id="veh226" type="veh_passenger" depart="227.60" departLane="best" departSpeed="max" from="388471074" to="-388470139"/>
    <trip id="veh228" type="veh_passenger" depart="229.62" departLane="best" from="580853946#5" to="-113467539#0"/>
    <trip id="veh229" type="veh_passenger" depart="230.63" departLane="best" from="154646651#1" to="353612862#10"/>
    <trip id="veh230" type="veh_passenger" depart="231.63" departLane="best" from="154646651#5" to="-519323442#3"/>
    <trip id="veh231" type="veh_passenger" depart="232.64" departLane="best" from="154646651#6" to="833493243#6"/>
    <trip id="veh232" type="veh_passenger" depart="233.65" departLane="best" departSpeed="max" from="505097816#0" to="519323443#1"/>
    <trip id="veh233" type="veh_passenger" depart="234.65" departLane="best" from="834985791#3" to="580853940"/>
    <trip id="veh234" type="veh_passenger" depart="235.66" departLane="best" departSpeed="max" from="154646651#0" to="-1009909875#4"/>
    <trip id="veh235" type="veh_passenger" depart="236.67" departLane="best" departSpeed="max" from="154489972" to="532529595#9"/>
    <trip id="veh236" type="veh_passenger" depart="237.68" departLane="best" from="833493243#6" to="834989739#5"/>
    <trip id="veh237" type="veh_passenger" depart="238.68" departLane="best" from="154646651#6" to="532529595#9"/>
    <trip id="veh238" type="veh_passenger" depart="239.69" departLane="best" departSpeed="max" from="388982897#0" to="353612863#1"/>
    <trip id="veh241" type="veh_passenger" depart="242.71" departLane="best" departSpeed="max" from="154261208" to="519323441#1"/>
    <trip id="veh242" type="veh_passenger" depart="243.72" departLane="best" departSpeed="max" from="154646651#0" to="-388982897#0"/>
    <trip id="veh244" type="veh_passenger" depart="245.73" departLane="best" departSpeed="max" from="154646651#0" to="353612862#10"/>
    <trip id="veh246" type="veh_passenger" depart="247.75" departLane="best" from="-641126492#1" to="154646651#11"/>
    <trip id="veh247" type="veh_passenger" depart="248.75" departLane="best" from="-231177199#7" to="1069574886#3"/>
    <trip id="veh248" type="veh_passenger" depart="249.76" departLane="best" from="1009909876" to="1015040610"/>
    <trip id="veh249" type="veh_passenger" depart="250.77" departLane="best" from="641843738#6" to="1069574886#3"/>
    <trip id="veh250" type="veh_passenger" depart="251.77" departLane="best" from="641843738#1" to="641126492#6"/>
    <trip id="veh251" type="veh_passenger" depart="252.78" departLane="best" from="1015040648" to="-231177199#0"/>
    <trip id="veh253" type="veh_passenger" depart="254.80" departLane="best" departSpeed="max" from="975866592" to="1015040650#5"/>
    <trip id="veh254" type="veh_passenger" depart="255.80" departLane="best" from="532529595#5" to="580853940"/>
    <trip id="veh255" type="veh_passenger" depart="256.81" departLane="best" from="532529595#5" to="532529595#9"/>
    <trip id="veh256" type="veh_passenger" depart="257.82" departLane="best" departSpeed="max" from="86096921" to="-519323441#0"/>
    <trip id="veh258" type="veh_passenger" depart="259.83" departLane="best" departSpeed="max" from="-580853940" to="519323438#1"/>
    <trip id="veh259" type="veh_passenger" depart="260.84" departLane="best" from="388982897#2" to="-580853940"/>
    <trip id="veh260" type="veh_passenger" depart="261.85" departLane="best" from="580853946#2" to="580853940"/>
    <trip id="veh261" type="veh_passenger" depart="262.85" departLane="best" from="-641843738#5" to="353612863#1"/>
    <trip id="veh262" type="veh_passenger" depart="263.86" departLane="best" from="641126492#3" to="-250490019#0"/>
    <trip id="veh263" type="veh_passenger" depart="264.87" departLane="best" departSpeed="max" from="832516003" to="834989739#5"/>
    <trip id="veh265" type="veh_passenger" depart="266.88" departLane="best" departSpeed="max" from="113467539#0" to="519323440#2"/>