<?xml version="1.0" encoding="UTF-8"?>

<!-- generated on 2022-10-08 08:37:32 by Eclipse SUMO polyconvert Version 1.14.1
<configuration xmlns:xsi="http://www.w3.org/2001/XMLSchema-instance" xsi:noNamespaceSchemaLocation="http://sumo.dlr.de/xsd/polyconvertConfiguration.xsd">

    <input>
        <net-file value="osm.net.xml"/>
        <osm-files value="osm_bbox.osm.xml.gz"/>
        <osm.keep-full-type value="true"/>
        <type-file value="C:\Program%20Files%20(x86)\Eclipse\Sumo\data\typemap\osmPolyconvert.typ.xml"/>
    </input>

    <output>
        <output-file value="osm.poly.xml"/>
    </output>

    <report>
        <verbose value="true"/>
    </report>

</configuration>
-->

<additional xmlns:xsi="http://www.w3.org/2001/XMLSchema-instance" xsi:noNamespaceSchemaLocation="http://sumo.dlr.de/xsd/additional_file.xsd">
    <location netOffset="-233324.35,-3342938.80" convBoundary="-2105.77,-7190.06,12209.54,7843.50" origBoundary="120.206458,30.124562,120.356769,30.258944" projParameter="+proj=utm +zone=51 +ellps=WGS84 +datum=WGS84 +units=m +no_defs"/>

    <poly id="1000800167" type="landuse.residential" color="235,235,227" fill="1" layer="-3.00" shape="3449.727738,1022.603196 3172.131999,1035.176943 3134.797404,816.283425 3413.507782,800.132461 3449.727738,1022.603196"/>
    <poly id="1009909872" type="building.yes" color="255,230,230" fill="1" layer="-1.00" shape="954.358720,2673.244159 954.978680,2641.610956 1005.906096,2642.594228 1005.285990,2674.227418 954.358720,2673.244159"/>
    <poly id="1009909873" type="building.yes" color="255,230,230" fill="1" layer="-1.00" shape="1494.520676,2645.684616 1493.873839,2614.991980 1541.077695,2613.815812 1541.592771,2644.245372 1494.520676,2645.684616"/>
    <poly id="1009909874" type="building.yes" color="255,230,230" fill="1" layer="-1.00" shape="1541.592771,2644.245372 1494.520676,2645.684616 1472.154493,2646.370437 1471.327466,2602.668850 1541.009314,2602.235297 1541.077695,2613.815812 1541.592771,2644.245372"/>
    <poly id="1011581687" type="amenity.parking" color="184,184,179" fill="1" layer="-1.00" shape="3052.407548,953.055463 3029.418073,811.806832 2925.640698,817.842954 2949.882609,961.424347 3052.407548,953.055463"/>
    <poly id="1012632601" type="landuse.residential" color="235,235,227" fill="1" layer="-3.00" shape="1746.092490,828.079098 1730.147327,622.948564 1814.549311,615.405872 1834.071688,697.861524 1853.305943,801.901930 1853.568249,812.756590 1846.971976,821.735701 1835.457968,825.408710 1746.092490,828.079098"/>
    <poly id="1012632602" type="landuse.residential" color="235,235,227" fill="1" layer="-3.00" shape="1534.250273,837.451482 1527.499639,614.991476 1432.785068,619.313545 1434.547194,833.074677 1440.846530,839.711747 1459.261459,839.266064 1534.250273,837.451482"/>
    <poly id="1012632607" type="building.industrial" color="255,230,230" fill="1" layer="-1.00" shape="2099.364080,793.928456 2088.086571,581.074913 2094.074573,574.828683 2215.299482,566.466802 2220.312640,576.530065 2232.905975,787.310463 2099.364080,793.928456"/>
    <poly id="1012632609" type="building.industrial" color="255,230,230" fill="1" layer="-1.00" shape="2277.773774,978.973852 2267.694927,871.983074 2397.653339,858.675077 2405.145698,971.153156 2277.773774,978.973852"/>
    <poly id="1012632613" type="landuse.retail" color="194,194,130" fill="1" layer="-3.00" shape="1722.851387,1138.285269 1716.524536,876.620123 1731.312033,868.041953 1846.941054,861.131147 1862.636182,868.972498 1871.306966,885.226426 1906.697068,1066.456631 1906.983310,1120.976586 1894.914067,1135.157878 1722.851387,1138.285269"/>
    <poly id="1012632614" type="natural.grassland" color="140,196,107" fill="1" layer="-4.00" shape="1569.757789,1016.526058 1564.160798,882.368569 1681.934972,878.488237 1696.575015,885.334227 1701.927544,1010.644536 1569.757789,1016.526058"/>
    <poly id="1012632615" type="amenity.kindergarten" color="237,199,199" fill="1" layer="-2.00" shape="1438.192255,974.912171 1437.480828,902.918144 1445.455338,890.377495 1529.075827,885.269801 1530.259341,976.799991 1438.192255,974.912171"/>
    <poly id="1012632616" type="landuse.residential" color="235,235,227" fill="1" layer="-3.00" shape="1438.192255,974.912171 1441.775852,1122.963827 1456.639854,1139.067566 1533.100155,1137.217163 1530.259341,976.799991 1438.192255,974.912171"/>
    <poly id="1012639038" type="building.industrial" color="255,230,230" fill="1" layer="-1.00" shape="2674.619811,1102.532679 2665.992669,844.041963 2738.778298,841.611963 2747.451871,1100.101453 2674.619811,1102.532679"/>
    <poly id="1012639040" type="building.industrial" color="255,230,230" fill="1" layer="-1.00" shape="2765.491239,1097.292874 2756.723671,867.694153 2822.231995,865.206985 2830.959662,1094.806588 2765.491239,1097.292874"/>
    <poly id="1012707110" type="natural.scrub" color="140,196,107" fill="1" layer="-4.00" shape="1889.671498,796.152957 1873.515451,695.455085 1843.120990,555.096425 1889.955851,553.842774 1898.211964,726.043523 1886.730522,731.069143 1896.523373,797.351963 1889.671498,796.152957"/>
    <poly id="1012707111" type="natural.scrub" color="140,196,107" fill="1" layer="-4.00" shape="1944.683339,1116.659853 1936.671685,1047.505016 1913.544006,937.434737 1905.001935,894.197143 1911.104303,892.696239 1914.853325,878.349913 1926.144711,865.862659 1945.917535,865.384983 1964.032085,881.233335 1978.476943,942.644502 1984.419861,962.869466 1972.985467,997.758832 1976.673405,1009.207469 1978.688826,1092.640865 1974.445650,1114.454255 1963.219753,1116.877674 1944.683339,1116.659853"/>
    <poly id="1012707112" type="natural.scrub" color="140,196,107" fill="1" layer="-4.00" shape="1944.257578,1164.052481 1964.013522,1162.898461 1963.219753,1116.877674 1974.445650,1114.454255 1977.749206,1166.638125 1981.708174,1245.953101 1987.648312,1293.990704 1982.466209,1305.653617 1980.976549,1329.353039 1986.921244,1404.304503 1977.034562,1423.059190 1960.532938,1424.478516 1952.878092,1407.179365 1944.257578,1164.052481"/>
    <poly id="1012707113" type="natural.scrub" color="140,196,107" fill="1" layer="-4.00" shape="1996.470967,1756.906478 1959.278367,1757.805133 1969.309162,1959.173639 1977.007104,1978.268960 1997.138207,1976.750787 2002.889143,1910.081249 2000.128787,1833.322156 1994.550282,1813.809507 1991.998534,1791.150698 1996.470967,1756.906478"/>
    <poly id="1012707114" type="natural.scrub" color="140,196,107" fill="1" layer="-4.00" shape="1956.270957,1712.703125 1951.798430,1495.302697 1956.845344,1477.252891 1965.154040,1464.582517 1982.402036,1464.942383 1990.532831,1477.215575 1995.272336,1543.365363 1989.586507,1567.676491 1994.296618,1600.301010 2004.309587,1690.486074 1993.829909,1711.007950 1956.270957,1712.703125"/>
    <poly id="1012707115" type="natural.scrub" color="140,196,107" fill="1" layer="-4.00" shape="1985.431999,2488.377564 1976.091590,2474.269872 1970.791341,2068.757456 1969.947883,2033.853982 1975.835274,2016.704639 1996.390946,2010.827358 2001.277497,2026.828838 2005.219145,2115.385589 1995.634814,2165.761975 2003.909756,2210.337331 2009.046796,2273.792813 2004.055124,2290.920509 2011.811039,2314.019364 2008.351812,2357.081047 2004.395348,2379.564315 2012.009473,2396.398493 2012.414572,2487.725485 1985.431999,2488.377564"/>
    <poly id="1012707116" type="natural.scrub" color="140,196,107" fill="1" layer="-4.00" shape="1954.722869,2856.242263 1964.925756,2719.894481 2008.138180,2720.636177 2005.607855,2615.936783 1970.558136,2617.671411 1975.796055,2573.668073 1975.125572,2545.927113 1989.360952,2539.314959 2019.901772,2536.790759 2031.639474,2762.147725 2032.137043,2782.737239 2033.083458,2790.402503 2036.123105,2847.207931 1954.722869,2856.242263"/>
    <poly id="1012707120" type="building.school" color="255,230,230" fill="1" layer="-1.00" shape="1652.208373,1425.253663 1650.519523,1376.946854 1587.038510,1359.966665 1585.035515,1298.288071 1636.929433,1285.206467 1636.880141,1262.054479 1585.108365,1258.680707 1582.988245,1238.363406 1650.895388,1242.689265 1652.910321,1304.877866 1604.625333,1317.361769 1605.122639,1337.918023 1671.187758,1355.357243 1673.272136,1398.506862 1706.762886,1400.281779 1707.173541,1424.434573 1652.208373,1425.253663"/>
    <poly id="1012707121" type="building.school" color="255,230,230" fill="1" layer="-1.00" shape="1657.461102,1340.035619 1656.064339,1299.021603 1704.389900,1297.375792 1705.786482,1338.389800 1657.461102,1340.035619"/>
    <poly id="1012707122" type="building.school" color="255,230,230" fill="1" layer="-1.00" shape="1590.643848,1547.212866 1643.123657,1545.255379 1643.796615,1573.073960 1651.261485,1600.029316 1669.598538,1624.702571 1687.548284,1633.764863 1703.341822,1638.142193 1707.615266,1645.505098 1709.463661,1693.641639 1705.633247,1704.595310 1698.245897,1709.522221 1648.551028,1713.442349 1648.174735,1706.650826 1635.610544,1708.297159 1634.435295,1715.481227 1619.174856,1717.203906 1618.884521,1723.922806 1591.932459,1725.917311 1591.163554,1694.140475 1631.618993,1692.274132 1632.244642,1699.414631 1647.106925,1699.953690 1646.901194,1691.449563 1696.351498,1689.365862 1695.539731,1655.803951 1663.732808,1643.138474 1641.137180,1639.203103 1604.330469,1641.336117 1593.514613,1641.963917 1588.116449,1642.283132 1587.737368,1626.616466 1593.390603,1628.077215 1602.153050,1627.809732 1641.750351,1627.106896 1651.155552,1625.525903 1652.363283,1619.683428 1651.747011,1612.531609 1645.727999,1605.510486 1601.513025,1606.136427 1592.750292,1606.392822 1589.968457,1607.314371 1589.708498,1596.570564 1640.528982,1595.341020 1638.479153,1585.095371 1629.687647,1575.001722 1625.146979,1573.325438 1590.913847,1571.912695 1590.643848,1547.212866"/>
    <poly id="1012707123" type="building.school" color="255,230,230" fill="1" layer="-1.00" shape="1589.386920,1677.664479 1588.626186,1663.349422 1593.976991,1663.064634 1604.341803,1662.514310 1651.459495,1659.998721 1652.230313,1674.335719 1589.386920,1677.664479"/>
    <poly id="1012707124" type="building.school" color="255,230,230" fill="1" layer="-1.00" shape="1593.390603,1628.077215 1592.750292,1606.392822 1601.513025,1606.136427 1602.153050,1627.809732 1593.390603,1628.077215"/>
    <poly id="1012707125" type="building.school" color="255,230,230" fill="1" layer="-1.00" shape="1593.976991,1663.064634 1593.514613,1641.963917 1604.330469,1641.336117 1604.341803,1662.514310 1593.976991,1663.064634"/>
    <poly id="1012707126" type="leisure.stadium" color="207,245,201" fill="1" layer="-2.00" shape="1705.180224,1588.252385 1670.047922,1589.102137 1658.447565,1579.608924 1656.536306,1564.733721 1648.796288,1565.442372 1645.776226,1483.220103 1694.334013,1482.045594 1700.274310,1492.186062 1702.534238,1500.363153 1705.180224,1588.252385"/>
    <poly id="1012707128" type="landuse.commercial" color="209,209,204" fill="1" layer="-3.00" shape="2011.502740,1410.256124 1998.253334,861.724520 2058.478945,857.152684 2070.340597,1231.431474 2071.088278,1267.579724 2077.261682,1407.891264 2011.502740,1410.256124"/>
    <poly id="1012707129" type="landuse.industrial" color="209,209,204" fill="1" layer="-3.00" shape="2088.715167,1201.011889 2080.587721,864.417893 2243.404325,857.359401 2267.910470,1191.228066 2088.715167,1201.011889"/>
    <poly id="1012707132" type="landuse.residential" color="235,235,227" fill="1" layer="-3.00" shape="604.096352,1466.953870 597.815116,1272.981791 609.356709,1264.125784 770.702583,1261.762239 770.106740,1301.537900 854.637787,1297.933629 853.586109,1448.417037 846.914640,1464.177179 604.096352,1466.953870"/>
    <poly id="1012707133" type="landuse.residential" color="235,235,227" fill="1" layer="-3.00" shape="599.143277,1230.847425 590.265721,962.086569 611.458317,931.174178 783.741366,926.992581 784.444988,988.558735 843.015375,980.126270 852.860853,1224.689268 844.364310,1229.577099 599.143277,1230.847425"/>
    <poly id="1012740455" type="building.commercial" color="255,230,230" fill="1" layer="-1.00" shape="2028.536693,1396.565187 2026.318265,1339.828764 2059.561505,1338.537719 2061.789123,1395.262815 2028.536693,1396.565187"/>
    <poly id="1012740456" type="building.commercial" color="255,230,230" fill="1" layer="-1.00" shape="2023.790378,1006.948933 2020.976928,917.987866 2054.689636,916.929657 2057.483550,1005.891178 2023.790378,1006.948933"/>
    <poly id="1012740457" type="building.commercial" color="255,230,230" fill="1" layer="-1.00" shape="2032.638813,1268.375196 2031.891005,1232.226941 2070.340597,1231.431474 2071.088278,1267.579724 2032.638813,1268.375196"/>
    <poly id="1012740458" type="building.commercial" color="255,230,230" fill="1" layer="-1.00" shape="2030.976210,1204.724916 2030.228417,1168.576662 2068.677966,1167.770119 2069.425631,1203.918366 2030.976210,1204.724916"/>
    <poly id="1012740459" type="building.commercial" color="255,230,230" fill="1" layer="-1.00" shape="2027.359350,1129.584120 2026.611570,1093.435869 2065.061383,1092.629332 2065.809304,1128.788664 2027.359350,1129.584120"/>
    <poly id="1012740460" type="building.commercial" color="255,230,230" fill="1" layer="-1.00" shape="2025.802983,1065.143612 2025.055219,1028.995364 2063.505258,1028.188837 2064.253163,1064.348167 2025.802983,1065.143612"/>
    <poly id="1012740461" type="building.commercial" color="255,230,230" fill="1" layer="-1.00" shape="2035.907517,1316.333107 2033.979160,1281.577921 2056.430978,1280.336747 2058.359263,1315.091932 2035.907517,1316.333107"/>
    <poly id="1012740462" type="building.commercial" color="255,230,230" fill="1" layer="-1.00" shape="2005.422083,894.001207 2004.694764,875.059198 2049.840069,873.336584 2050.557678,892.278823 2005.422083,894.001207"/>
    <poly id="1012740466" type="building.yes" color="255,230,230" fill="1" layer="-1.00" shape="1733.100352,1111.800170 1731.116892,1036.542134 1750.317965,1035.545389 1752.890946,1111.277297 1733.100352,1111.800170"/>
    <poly id="1012740467" type="building.yes" color="255,230,230" fill="1" layer="-1.00" shape="1730.064331,996.595947 1728.583461,940.130077 1747.974166,940.193781 1747.865809,996.698066 1730.064331,996.595947"/>
    <poly id="1012740468" type="building.yes" color="255,230,230" fill="1" layer="-1.00" shape="1745.490639,916.790046 1745.134723,903.263990 1787.962632,902.151010 1788.834090,917.073536 1745.490639,916.790046"/>
    <poly id="1012740469" type="building.yes" color="255,230,230" fill="1" layer="-1.00" shape="1806.401306,916.648914 1806.039520,901.680787 1839.852920,900.796993 1840.269813,916.850993 1806.401306,916.648914"/>
    <poly id="1012740470" type="building.yes" color="255,230,230" fill="1" layer="-1.00" shape="1753.470692,1133.662041 1752.890946,1111.277297 1793.698697,1109.148081 1794.708857,1132.598530 1753.470692,1133.662041"/>
    <poly id="1012740471" type="building.yes" color="255,230,230" fill="1" layer="-1.00" shape="1833.317496,1131.587637 1832.931824,1108.055534 1876.068663,1105.803770 1876.628596,1127.379114 1833.317496,1131.587637"/>
    <poly id="1012740472" type="landuse.residential" color="235,235,227" fill="1" layer="-3.00" shape="3246.828359,2413.822488 3214.232826,2219.176963 3272.822988,2205.420356 3309.771262,2409.224660 3246.828359,2413.822488"/>
    <poly id="1012740473" type="building.apartments" color="255,230,230" fill="1" layer="-1.00" shape="3304.976124,1431.061935 3259.438921,1438.014221 3256.973514,1422.042886 3302.510785,1415.090594 3304.976124,1431.061935"/>
    <poly id="1012740474" type="landuse.residential" color="235,235,227" fill="1" layer="-3.00" shape="3268.398598,1591.437513 3239.916862,1438.849696 3239.298907,1413.149012 3309.119102,1392.954841 3336.418939,1582.602401 3268.398598,1591.437513"/>
    <poly id="1013694924" type="natural.grassland" color="140,196,107" fill="1" layer="-4.00" shape="733.016093,869.546887 834.614468,755.774968 837.996783,866.999728 733.016093,869.546887"/>
    <poly id="1013694925" type="natural.grassland" color="140,196,107" fill="1" layer="-4.00" shape="2251.894293,718.768818 2244.586083,528.906117 2387.577792,517.990861 2388.562327,587.193154 2397.023466,711.873341 2251.894293,718.768818"/>
    <poly id="1015040579" type="building.residential" color="255,230,230" fill="1" layer="-1.00" shape="1743.591762,1602.666444 1744.629756,1622.876793 1810.363389,1619.512361 1809.325250,1599.290928 1743.591762,1602.666444"/>
    <poly id="1015040580" type="building.residential" color="255,230,230" fill="1" layer="-1.00" shape="1752.394089,1691.316499 1753.431810,1711.515762 1819.164908,1708.151345 1818.117142,1687.930143 1752.394089,1691.316499"/>
    <poly id="1015040581" type="building.residential" color="255,230,230" fill="1" layer="-1.00" shape="1834.552851,1686.989197 1835.600317,1707.199311 1901.333151,1703.824303 1900.285538,1683.603104 1834.552851,1686.989197"/>
    <poly id="1015040582" type="building.residential" color="255,230,230" fill="1" layer="-1.00" shape="1843.803292,1601.674690 1904.801511,1599.335016 1905.598727,1619.961647 1844.600891,1622.312413 1843.803292,1601.674690"/>
    <poly id="1015040583" type="building.residential" color="255,230,230" fill="1" layer="-1.00" shape="1774.042465,1570.400992 1741.025138,1571.842825 1741.604763,1585.052852 1774.622051,1583.611018 1774.042465,1570.400992"/>
    <poly id="1015040584" type="building.residential" color="255,230,230" fill="1" layer="-1.00" shape="1815.249610,1570.514114 1778.630454,1572.042910 1779.210034,1585.252936 1814.924140,1583.757112 1815.249610,1570.514114"/>
    <poly id="1015040585" type="building.residential" color="255,230,230" fill="1" layer="-1.00" shape="1773.899088,1544.544361 1740.881682,1545.986189 1741.451674,1559.196449 1774.478671,1557.754387 1773.899088,1544.544361"/>
    <poly id="1015040586" type="building.residential" color="255,230,230" fill="1" layer="-1.00" shape="1815.096966,1544.668811 1778.477456,1546.186513 1779.057034,1559.396538 1814.771224,1557.900720 1815.096966,1544.668811"/>
    <poly id="1015040587" type="building.residential" color="255,230,230" fill="1" layer="-1.00" shape="1774.156429,1518.123344 1741.138676,1519.554077 1741.718296,1532.764103 1774.736009,1531.333369 1774.156429,1518.123344"/>
    <poly id="1015040588" type="building.residential" color="255,230,230" fill="1" layer="-1.00" shape="1815.354139,1518.236713 1778.744439,1519.765263 1779.314383,1532.975521 1815.038291,1531.479477 1815.354139,1518.236713"/>
    <poly id="1015040589" type="building.residential" color="255,230,230" fill="1" layer="-1.00" shape="1774.822991,1489.895206 1741.805421,1491.337019 1742.385037,1504.547045 1775.402568,1503.105231 1774.822991,1489.895206"/>
    <poly id="1015040590" type="building.residential" color="255,230,230" fill="1" layer="-1.00" shape="1816.030705,1490.019441 1779.411012,1491.537127 1779.990583,1504.747151 1815.704952,1503.251349 1816.030705,1490.019441"/>
    <poly id="1015040591" type="building.residential" color="255,230,230" fill="1" layer="-1.00" shape="1863.762719,1567.111507 1830.745396,1568.553068 1831.324644,1581.752005 1864.342195,1580.321530 1863.762719,1567.111507"/>
    <poly id="1015040592" type="building.residential" color="255,230,230" fill="1" layer="-1.00" shape="1900.615389,1564.878434 1867.588166,1566.309028 1868.167638,1579.519051 1901.185190,1578.088688 1900.615389,1564.878434"/>
    <poly id="1015040593" type="building.residential" color="255,230,230" fill="1" layer="-1.00" shape="1899.142312,1541.405890 1866.124917,1542.847338 1866.704120,1556.046273 1899.721743,1554.615911 1899.142312,1541.405890"/>
    <poly id="1015040594" type="building.residential" color="255,230,230" fill="1" layer="-1.00" shape="1862.299193,1543.638730 1829.281799,1545.080290 1829.851684,1558.290547 1862.869038,1556.848985 1862.299193,1543.638730"/>
    <poly id="1015040595" type="building.residential" color="255,230,230" fill="1" layer="-1.00" shape="1898.504040,1514.995454 1865.486565,1516.436899 1866.066034,1529.646921 1899.083738,1528.216563 1898.504040,1514.995454"/>
    <poly id="1015040596" type="building.residential" color="255,230,230" fill="1" layer="-1.00" shape="1861.661100,1517.239377 1828.643358,1518.669847 1829.213241,1531.880103 1862.230944,1530.449632 1861.661100,1517.239377"/>
    <poly id="1015040597" type="building.residential" color="255,230,230" fill="1" layer="-1.00" shape="1898.663336,1484.105965 1865.635869,1485.536548 1866.215336,1498.746569 1899.233132,1497.316218 1898.663336,1484.105965"/>
    <poly id="1015040598" type="building.residential" color="255,230,230" fill="1" layer="-1.00" shape="1861.810393,1486.339025 1828.792557,1487.769487 1829.372069,1500.979510 1862.389864,1499.549047 1861.810393,1486.339025"/>
    <poly id="1015040599" type="natural.grassland" color="140,196,107" fill="1" layer="-4.00" shape="1662.027928,1984.131865 1662.262500,1951.210260 1592.940724,1948.771679 1589.393715,1759.582509 1702.036774,1757.889135 1709.418319,1763.878862 1718.532417,1969.385628 1712.629044,1981.876047 1662.027928,1984.131865"/>
    <poly id="1015040600" type="natural.grassland" color="140,196,107" fill="1" layer="-4.00" shape="1744.510052,1974.936679 1742.265518,1753.832050 1917.696505,1740.560391 1921.111273,1967.571713 1744.510052,1974.936679"/>
    <poly id="1015040601" type="natural.grassland" color="140,196,107" fill="1" layer="-4.00" shape="1759.152243,2495.057859 1752.068614,2287.449499 1924.583381,2282.246429 1933.783977,2491.866897 1759.152243,2495.057859"/>
    <poly id="1015040602" type="natural.grassland" color="140,196,107" fill="1" layer="-4.00" shape="1755.824718,2250.326854 1745.158385,2023.257571 1919.723158,2016.984596 1930.450728,2247.136351 1755.824718,2250.326854"/>
    <poly id="1015040603" type="natural.grassland" color="140,196,107" fill="1" layer="-4.00" shape="1602.148120,2884.573907 1594.314421,2774.699638 1910.945015,2744.419168 1893.038920,2859.020484 1602.148120,2884.573907"/>
    <poly id="1015040604" type="natural.grassland" color="140,196,107" fill="1" layer="-4.00" shape="1596.519541,2737.625480 1594.334867,2561.782526 1733.538302,2547.109301 1735.745396,2723.972173 1596.519541,2737.625480"/>
    <poly id="1015040605" type="natural.grassland" color="140,196,107" fill="1" layer="-4.00" shape="1761.397815,2716.151585 1762.615093,2552.574202 1920.512821,2541.555984 1931.168470,2554.666660 1916.400707,2713.423761 1761.397815,2716.151585"/>
    <poly id="1015040606" type="natural.grassland" color="140,196,107" fill="1" layer="-4.00" shape="1232.924778,2791.685233 1211.131051,2660.560214 1321.713393,2616.732402 1341.003076,2772.613551 1232.924778,2791.685233"/>
    <poly id="1015040607" type="natural.grassland" color="140,196,107" fill="1" layer="-4.00" shape="1368.974543,2775.020008 1344.299722,2610.016875 1417.026555,2582.539134 1428.738170,2596.655548 1432.846329,2766.272759 1368.974543,2775.020008"/>
    <poly id="1015040608" type="natural.grassland" color="140,196,107" fill="1" layer="-4.00" shape="1408.295754,2904.688810 1400.659649,2803.052585 1558.180504,2776.606104 1559.862874,2888.681701 1408.295754,2904.688810"/>
    <poly id="1015040620" type="landuse.residential" color="235,235,227" fill="1" layer="-3.00" shape="2093.534564,2837.477976 2069.906737,2543.869698 2539.444514,2509.914886 2522.312370,2571.011925 2492.728055,2630.357011 2458.888893,2684.657276 2426.139570,2740.983764 2419.924766,2783.301838 2417.990084,2831.695970 2093.534564,2837.477976"/>
    <poly id="1015040621" type="landuse.residential" color="235,235,227" fill="1" layer="-3.00" shape="2464.356824,2825.429579 2473.374986,2770.707438 2495.965271,2721.815043 2527.075747,2683.012382 2566.135791,2630.638830 2576.432688,2586.158999 2588.205203,2516.959609 2960.900199,2496.663323 3000.527118,2811.485813 2464.356824,2825.429579"/>
    <poly id="1015040622" type="landuse.industrial" color="209,209,204" fill="1" layer="-3.00" shape="2115.570232,2409.916170 2105.911200,2010.023196 2309.280688,1997.913183 2316.313397,2203.469666 2204.894848,2213.359329 2209.635905,2409.707863 2115.570232,2409.916170"/>
    <poly id="1015040623" type="building.industrial" color="255,230,230" fill="1" layer="-1.00" shape="2346.435527,2070.558316 2495.218159,2062.475961 2500.591955,2161.037982 2351.800505,2169.098417 2346.435527,2070.558316"/>
    <poly id="1015040624" type="landuse.industrial" color="209,209,204" fill="1" layer="-3.00" shape="2346.716469,2182.023521 2334.713680,1995.690789 2497.505760,1986.327516 2505.227180,1995.648800 2518.974217,2169.724959 2346.716469,2182.023521"/>
    <poly id="1015040625" type="landuse.industrial" color="209,209,204" fill="1" layer="-3.00" shape="2346.716469,2182.023521 2352.707862,2260.601596 2526.298926,2246.906301 2518.974217,2169.724959 2346.716469,2182.023521"/>
    <poly id="1015040626" type="landuse.industrial" color="209,209,204" fill="1" layer="-3.00" shape="2352.707862,2260.601596 2360.273434,2376.461736 2536.002303,2366.786300 2526.298926,2246.906301 2352.707862,2260.601596"/>
    <poly id="1015040627" type="landuse.industrial" color="209,209,204" fill="1" layer="-3.00" shape="2764.304508,2443.588537 2761.441252,2389.142045 2798.569539,2385.673668 2798.210518,2370.772105 2816.805676,2370.324112 2813.162492,2283.491126 2890.555085,2277.511128 2902.630341,2435.630090 2764.304508,2443.588537"/>
    <poly id="1015040628" type="landuse.industrial" color="209,209,204" fill="1" layer="-3.00" shape="2907.318623,2437.059231 2896.249267,2277.895407 2994.867383,2273.457368 3008.986693,2430.495360 2907.318623,2437.059231"/>
    <poly id="1015040629" type="building.yes" color="255,230,230" fill="1" layer="-1.00" shape="2679.687795,2438.827256 2672.603833,2373.188871 2740.704417,2365.889675 2747.797596,2431.527842 2679.687795,2438.827256"/>
    <poly id="1015040629#1" type="shop.car" color="237,199,255" fill="1" layer="-1.00" shape="2679.687795,2438.827256 2672.603833,2373.188871 2740.704417,2365.889675 2747.797596,2431.527842 2679.687795,2438.827256"/>
    <poly id="1015040630" type="building.yes" color="255,230,230" fill="1" layer="-1.00" shape="2218.054447,2446.303268 2215.309632,2310.279882 2307.938799,2308.409808 2310.691824,2444.421815 2218.054447,2446.303268"/>
    <poly id="1015040630#1" type="shop.yes" color="237,199,255" fill="1" layer="-1.00" shape="2218.054447,2446.303268 2215.309632,2310.279882 2307.938799,2308.409808 2310.691824,2444.421815 2218.054447,2446.303268"/>
    <poly id="1015040631" type="amenity.fuel" color="237,199,199" fill="1" layer="-1.00" shape="1964.925756,2719.894481 1970.558136,2617.671411 2005.607855,2615.936783 2008.138180,2720.636177 1964.925756,2719.894481"/>
    <poly id="1015040633" type="amenity.fuel" color="237,199,199" fill="1" layer="-1.00" shape="1980.395940,2708.570779 1984.921816,2653.845664 2000.946805,2646.735404 2004.919126,2699.468983 1980.395940,2708.570779"/>
    <poly id="1015040633#1" type="building.yes" color="255,230,230" fill="1" layer="-1.00" shape="1980.395940,2708.570779 1984.921816,2653.845664 2000.946805,2646.735404 2004.919126,2699.468983 1980.395940,2708.570779"/>
    <poly id="1015040634" type="amenity.post_office" color="237,199,199" fill="1" layer="-1.00" shape="492.250370,2606.374691 493.631778,2652.903202 375.149328,2655.051394 372.011490,2481.226951 341.488500,2463.497404 358.454357,2420.205976 366.400575,2392.732261 584.789632,2384.306924 585.301038,2341.105082 593.370686,2340.897945 622.769644,2340.128308 735.637937,2337.198621 736.374201,2360.378522 744.191843,2606.544485 492.250370,2606.374691"/>
    <poly id="1015841415" type="natural.water" color="181,209,209" fill="1" layer="-4.00" shape="1570.575389,2508.895502 1556.729490,2487.408706 1556.671529,2468.694481 1561.913923,2442.452236 1559.337995,2433.162323 1564.384972,2431.486992 1557.381853,2417.234272 1554.758681,2405.992955 1556.177513,2399.723766 1555.715350,2380.631036 1551.635761,2374.106653 1557.631333,2362.656708 1551.285540,2343.318107 1552.177511,2331.603411 1556.763924,2326.821807 1560.081021,2318.165833 1564.206329,2310.655170 1566.090147,2291.350344 1575.870692,2290.969393 1575.522455,2308.828108 1570.777329,2322.976901 1567.206830,2337.485558 1573.692506,2346.680839 1570.281180,2351.045702 1575.611053,2361.056636 1573.863632,2369.674614 1581.410883,2374.162524 1571.938233,2387.260873 1571.567735,2393.848599 1570.839828,2406.768572 1574.384668,2423.445844 1578.849422,2429.960911 1575.409708,2433.549880 1576.397176,2442.101662 1579.743709,2450.984634 1578.795377,2460.370948 1575.600938,2473.694538 1575.375730,2480.711415 1578.752004,2507.144419 1570.575389,2508.895502"/>
    <poly id="1015841418" type="building.industrial" color="255,230,230" fill="1" layer="-1.00" shape="2140.346885,2276.034739 2194.373192,2274.031114 2199.076353,2400.965640 2145.079565,2402.968590 2140.346885,2276.034739"/>
    <poly id="1015841419" type="building.industrial" color="255,230,230" fill="1" layer="-1.00" shape="2117.808186,2184.632280 2116.291841,2056.821999 2202.329715,2050.850353 2205.583935,2185.629972 2117.808186,2184.632280"/>
    <poly id="1015841420" type="building.yes" color="255,230,230" fill="1" layer="-1.00" shape="2207.409458,1670.149537 2191.638670,1505.441149 2265.782797,1498.381899 2281.581352,1663.089617 2207.409458,1670.149537"/>
    <poly id="1015841421" type="building.yes" color="255,230,230" fill="1" layer="-1.00" shape="2094.227375,1503.499779 2098.871995,1625.598695 2172.145413,1622.819836 2167.521142,1500.731569 2094.227375,1503.499779"/>
    <poly id="1015841422" type="building.yes" color="255,230,230" fill="1" layer="-1.00" shape="2186.013895,1780.562786 2195.882524,1924.301905 2271.592201,1919.146063 2269.082892,1882.652062 2294.018060,1880.951936 2286.640191,1773.685112 2186.013895,1780.562786"/>