<?xml version="1.0" encoding="UTF-8"?>

<!-- generated on 2022-10-08 08:37:31 by Eclipse SUMO netconvert Version 1.14.1
<configuration xmlns:xsi="http://www.w3.org/2001/XMLSchema-instance" xsi:noNamespaceSchemaLocation="http://sumo.dlr.de/xsd/netconvertConfiguration.xsd">

    <input>
        <type-files value="C:\Program%20Files%20(x86)\Eclipse\Sumo\data\typemap\osmNetconvert.typ.xml"/>
        <osm-files value="osm_bbox.osm.xml.gz"/>
    </input>

    <output>
        <output-file value="osm.net.xml"/>
        <output.street-names value="true"/>
        <output.original-names value="true"/>
    </output>

    <projection>
        <proj.utm value="true"/>
    </projection>

    <processing>
        <geometry.remove value="true"/>
        <roundabouts.guess value="true"/>
    </processing>

    <tls_building>
        <tls.discard-simple value="true"/>
        <tls.join value="true"/>
        <tls.guess-signals value="true"/>
        <tls.default-type value="actuated"/>
    </tls_building>

    <ramp_guessing>
        <ramps.guess value="true"/>
    </ramp_guessing>

    <edge_removal>
        <keep-edges.by-vclass value="passenger"/>
    </edge_removal>

    <junctions>
        <junctions.join value="true"/>
        <junctions.corner-detail value="5"/>
    </junctions>

    <report>
        <verbose value="true"/>
    </report>

</configuration>
-->

<net version="1.9" junctionCornerDetail="5" limitTurnSpeed="5.50" xmlns:xsi="http://www.w3.org/2001/XMLSchema-instance" xsi:noNamespaceSchemaLocation="http://sumo.dlr.de/xsd/net_file.xsd">

    <location netOffset="-233324.35,-3342938.80" convBoundary="0.00,0.00,6296.51,2963.06" origBoundary="120.206458,30.124562,120.356769,30.258944" projParameter="+proj=utm +zone=51 +ellps=WGS84 +datum=WGS84 +units=m +no_defs"/>

    <type id="highway.bridleway" priority="1" numLanes="1" speed="2.78" allow="pedestrian" oneway="1" width="2.00"/>
    <type id="highway.bus_guideway" priority="1" numLanes="1" speed="27.78" allow="bus" oneway="1"/>
    <type id="highway.cycleway" priority="1" numLanes="1" speed="5.56" allow="bicycle" oneway="0" width="1.00"/>
    <type id="highway.footway" priority="1" numLanes="1" speed="2.78" allow="pedestrian" oneway="1" width="2.00"/>
    <type id="highway.ford" priority="1" numLanes="1" speed="2.78" allow="army" oneway="0"/>
    <type id="highway.living_street" priority="2" numLanes="1" speed="2.78" disallow="tram rail_urban rail rail_electric rail_fast ship" oneway="0"/>
    <type id="highway.motorway" priority="14" numLanes="2" speed="39.44" allow="private emergency authority army vip passenger hov taxi bus coach delivery truck trailer motorcycle evehicle custom1 custom2" oneway="1"/>
    <type id="highway.motorway_link" priority="9" numLanes="1" speed="22.22" allow="private emergency authority army vip passenger hov taxi bus coach delivery truck trailer motorcycle evehicle custom1 custom2" oneway="1"/>
    <type id="highway.path" priority="1" numLanes="1" speed="5.56" allow="pedestrian bicycle" oneway="0" width="2.00"/>
    <type id="highway.pedestrian" priority="1" numLanes="1" speed="2.78" allow="pedestrian" oneway="1" width="2.00"/>
    <type id="highway.primary" priority="12" numLanes="2" speed="27.78" disallow="tram rail_urban rail rail_electric rail_fast ship" oneway="0"/>
    <type id="highway.primary_link" priority="7" numLanes="1" speed="22.22" disallow="tram rail_urban rail rail_electric rail_fast ship" oneway="0"/>
    <type id="highway.raceway" priority="15" numLanes="2" speed="83.33" allow="vip" oneway="0"/>
    <type id="highway.residential" priority="3" numLanes="1" speed="13.89" disallow="tram rail_urban rail rail_electric rail_fast ship" oneway="0"/>
    <type id="highway.secondary" priority="11" numLanes="1" speed="27.78" disallow="tram rail_urban rail rail_electric rail_fast ship" oneway="0"/>
    <type id="highway.secondary_link" priority="6" numLanes="1" speed="22.22" disallow="tram rail_urban rail rail_electric rail_fast ship" oneway="0"/>
    <type id="highway.service" priority="1" numLanes="1" speed="5.56" allow="pedestrian delivery bicycle" oneway="0"/>
    <type id="highway.stairs" priority="1" numLanes="1" speed="1.39" allow="pedestrian" oneway="1" width="2.00"/>
    <type id="highway.step" priority="1" numLanes="1" speed="1.39" allow="pedestrian" oneway="1" width="2.00"/>
    <type id="highway.steps" priority="1" numLanes="1" speed="1.39" allow="pedestrian" oneway="1" width="2.00"/>
    <type id="highway.tertiary" priority="10" numLanes="1" speed="22.22" disallow="tram rail_urban rail rail_electric rail_fast ship" oneway="0"/>
    <type id="highway.tertiary_link" priority="5" numLanes="1" speed="22.22" disallow="tram rail_urban rail rail_electric rail_fast ship" oneway="0"/>
    <type id="highway.track" priority="1" numLanes="1" speed="5.56" allow="pedestrian motorcycle moped bicycle" oneway="0"/>
    <type id="highway.trunk" priority="13" numLanes="2" speed="27.78" disallow="pedestrian bicycle tram rail_urban rail rail_electric rail_fast ship" oneway="0"/>
    <type id="highway.trunk_link" priority="8" numLanes="1" speed="22.22" disallow="pedestrian bicycle tram rail_urban rail rail_electric rail_fast ship" oneway="0"/>
    <type id="highway.unclassified" priority="4" numLanes="1" speed="13.89" disallow="tram rail_urban rail rail_electric rail_fast ship" oneway="0"/>
    <type id="highway.unsurfaced" priority="1" numLanes="1" speed="8.33" disallow="tram rail_urban rail rail_electric rail_fast ship" oneway="0"/>
    <type id="railway.highspeed" priority="21" numLanes="1" speed="69.44" allow="rail_fast" oneway="1"/>
    <type id="railway.light_rail" priority="19" numLanes="1" speed="27.78" allow="rail_urban" oneway="1"/>
    <type id="railway.preserved" priority="16" numLanes="1" speed="27.78" allow="rail" oneway="1"/>
    <type id="railway.rail" priority="20" numLanes="1" speed="44.44" allow="rail" oneway="1"/>
    <type id="railway.subway" priority="18" numLanes="1" speed="27.78" allow="rail_urban" oneway="1"/>
    <type id="railway.tram" priority="17" numLanes="1" speed="13.89" allow="tram" oneway="1"/>

    <edge id=":1286462346_0" function="internal">
        <lane id=":1286462346_0_0" index="0" disallow="tram rail_urban rail rail_electric rail_fast ship" speed="6.76" length="9.51" shape="2518.99,1976.71 2518.41,1974.19 2517.17,1972.42 2515.26,1971.40 2512.68,1971.13"/>
    </edge>
    <edge id=":1286462346_1" function="internal">
        <lane id=":1286462346_1_0" index="0" disallow="tram rail_urban rail rail_electric rail_fast ship" speed="22.22" length="14.71" shape="2518.99,1976.71 2517.73,1962.06"/>
    </edge>
    <edge id=":1286462346_2" function="internal">
        <lane id=":1286462346_2_0" index="0" disallow="tram rail_urban rail rail_electric rail_fast ship" speed="7.92" length="14.37" shape="2518.99,1976.71 2519.23,1972.76 2520.69,1969.89 2523.37,1968.10 2527.27,1967.39"/>
    </edge>
    <edge id=":1286462346_3" function="internal">
        <lane id=":1286462346_3_0" index="0" disallow="tram rail_urban rail rail_electric rail_fast ship" speed="3.65" length="4.67" shape="2518.99,1976.71 2519.69,1975.45 2520.45,1974.99 2521.28,1975.32 2522.18,1976.45"/>
    </edge>
    <edge id=":1286462346_4" function="internal">
        <lane id=":1286462346_4_0" index="0" disallow="tram rail_urban rail rail_electric rail_fast ship" speed="6.41" length="9.04" shape="2527.39,1970.59 2524.93,1971.03 2523.25,1972.16 2522.33,1973.96 2522.18,1976.45"/>
    </edge>
    <edge id=":1286462346_5" function="internal">
        <lane id=":1286462346_5_0" index="0" disallow="tram rail_urban rail rail_electric rail_fast ship" speed="22.22" length="14.72" shape="2527.39,1970.59 2512.68,1971.13"/>
    </edge>
    <edge id=":1286462346_6" function="internal">
        <lane id=":1286462346_6_0" index="0" disallow="tram rail_urban rail rail_electric rail_fast ship" speed="8.25" length="4.12" shape="2527.39,1970.59 2523.46,1970.18 2523.31,1970.10"/>
    </edge>
    <edge id=":1286462346_7" function="internal">
        <lane id=":1286462346_7_0" index="0" disallow="tram rail_urban rail rail_electric rail_fast ship" speed="3.65" length="1.44" shape="2527.39,1970.59 2526.16,1969.84"/>
    </edge>
    <edge id=":1286462346_16" function="internal">
        <lane id=":1286462346_16_0" index="0" disallow="tram rail_urban rail rail_electric rail_fast ship" speed="8.25" length="10.40" shape="2523.31,1970.10 2520.54,1968.62 2518.63,1965.91 2517.73,1962.06"/>
    </edge>
    <edge id=":1286462346_17" function="internal">
        <lane id=":1286462346_17_0" index="0" disallow="tram rail_urban rail rail_electric rail_fast ship" speed="3.65" length="3.23" shape="2526.16,1969.84 2525.73,1969.05 2526.10,1968.24 2527.27,1967.39"/>
    </edge>
    <edge id=":1286462346_8" function="internal">
        <lane id=":1286462346_8_0" index="0" disallow="tram rail_urban rail rail_electric rail_fast ship" speed="6.80" length="9.56" shape="2520.92,1961.77 2521.51,1964.31 2522.77,1966.09 2524.69,1967.12 2527.27,1967.39"/>
    </edge>
    <edge id=":1286462346_9" function="internal">
        <lane id=":1286462346_9_0" index="0" disallow="tram rail_urban rail rail_electric rail_fast ship" speed="22.22" length="14.73" shape="2520.92,1961.77 2522.18,1976.45"/>
    </edge>
    <edge id=":1286462346_10" function="internal">
        <lane id=":1286462346_10_0" index="0" disallow="tram rail_urban rail rail_electric rail_fast ship" speed="7.91" length="14.39" shape="2520.92,1961.77 2520.71,1965.74 2519.26,1968.62 2516.59,1970.42 2512.68,1971.13"/>
    </edge>
    <edge id=":1286462346_11" function="internal">
        <lane id=":1286462346_11_0" index="0" disallow="tram rail_urban rail rail_electric rail_fast ship" speed="3.65" length="4.67" shape="2520.92,1961.77 2520.23,1963.04 2519.47,1963.51 2518.64,1963.18 2517.73,1962.06"/>
    </edge>
    <edge id=":1286462346_12" function="internal">
        <lane id=":1286462346_12_0" index="0" disallow="tram rail_urban rail rail_electric rail_fast ship" speed="6.40" length="9.04" shape="2512.56,1967.93 2515.01,1967.49 2516.69,1966.36 2517.60,1964.55 2517.73,1962.06"/>
    </edge>
    <edge id=":1286462346_13" function="internal">
        <lane id=":1286462346_13_0" index="0" disallow="tram rail_urban rail rail_electric rail_fast ship" speed="22.22" length="14.72" shape="2512.56,1967.93 2527.27,1967.39"/>
    </edge>
    <edge id=":1286462346_14" function="internal">
        <lane id=":1286462346_14_0" index="0" disallow="tram rail_urban rail rail_electric rail_fast ship" speed="8.21" length="4.14" shape="2512.56,1967.93 2516.50,1968.34 2516.66,1968.43"/>
    </edge>
    <edge id=":1286462346_15" function="internal">
        <lane id=":1286462346_15_0" index="0" disallow="tram rail_urban rail rail_electric rail_fast ship" speed="3.65" length="1.44" shape="2512.56,1967.93 2513.79,1968.69"/>
    </edge>
    <edge id=":1286462346_18" function="internal">
        <lane id=":1286462346_18_0" index="0" disallow="tram rail_urban rail rail_electric rail_fast ship" speed="8.21" length="10.37" shape="2516.66,1968.43 2519.41,1969.90 2521.30,1972.60 2522.18,1976.45"/>
    </edge>
    <edge id=":1286462346_19" function="internal">
        <lane id=":1286462346_19_0" index="0" disallow="tram rail_urban rail rail_electric rail_fast ship" speed="3.65" length="3.23" shape="2513.79,1968.69 2514.22,1969.47 2513.85,1970.29 2512.68,1971.13"/>
    </edge>
    <edge id=":1286462389_0" function="internal">
        <lane id=":1286462389_0_0" index="0" disallow="tram rail_urban rail rail_electric rail_fast ship" speed="27.78" length="14.26" shape="2091.80,1437.16 2077.56,1437.87"/>
    </edge>
    <edge id=":1286462389_1" function="internal">
        <lane id=":1286462389_1_0" index="0" disallow="tram rail_urban rail rail_electric rail_fast ship" speed="7.99" length="3.90" shape="2091.80,1437.16 2087.93,1436.75"/>
    </edge>
    <edge id=":1286462389_2" function="internal">
        <lane id=":1286462389_2_0" index="0" disallow="tram rail_urban rail rail_electric rail_fast ship" speed="3.65" length="1.44" shape="2091.80,1437.16 2090.57,1436.40"/>
    </edge>
    <edge id=":1286462389_9" function="internal">
        <lane id=":1286462389_9_0" index="0" disallow="tram rail_urban rail rail_electric rail_fast ship" speed="7.99" length="10.32" shape="2087.93,1436.75 2085.12,1435.19 2083.38,1432.49 2082.71,1428.65"/>
    </edge>
    <edge id=":1286462389_10" function="internal">
        <lane id=":1286462389_10_0" index="0" disallow="tram rail_urban rail rail_electric rail_fast ship" speed="3.65" length="3.23" shape="2090.57,1436.40 2090.15,1435.62 2090.52,1434.80 2091.69,1433.96"/>
    </edge>
    <edge id=":1286462389_3" function="internal">
        <lane id=":1286462389_3_0" index="0" disallow="tram rail_urban rail rail_electric rail_fast ship" speed="6.50" length="9.03" shape="2085.91,1428.56 2086.34,1431.00 2087.44,1432.71 2089.22,1433.70 2091.69,1433.96"/>
    </edge>
    <edge id=":1286462389_4" function="internal">
        <lane id=":1286462389_4_0" index="0" disallow="tram rail_urban rail rail_electric rail_fast ship" speed="8.09" length="14.16" shape="2085.91,1428.56 2085.49,1432.42 2083.96,1435.26 2081.31,1437.08 2077.56,1437.87"/>
    </edge>
    <edge id=":1286462389_5" function="internal">
        <lane id=":1286462389_5_0" index="0" disallow="tram rail_urban rail rail_electric rail_fast ship" speed="3.65" length="4.67" shape="2085.91,1428.56 2085.15,1429.78 2084.36,1430.20 2083.55,1429.83 2082.71,1428.65"/>
    </edge>
    <edge id=":1286462389_6" function="internal">
        <lane id=":1286462389_6_0" index="0" disallow="tram rail_urban rail rail_electric rail_fast ship" speed="6.62" length="9.13" shape="2077.35,1434.68 2079.76,1434.17 2081.46,1432.99 2082.44,1431.15 2082.71,1428.65"/>
    </edge>
    <edge id=":1286462389_7" function="internal">
        <lane id=":1286462389_7_0" index="0" disallow="tram rail_urban rail rail_electric rail_fast ship" speed="27.78" length="14.35" shape="2077.35,1434.68 2091.69,1433.96"/>
    </edge>
    <edge id=":1286462389_8" function="internal">
        <lane id=":1286462389_8_0" index="0" disallow="tram rail_urban rail rail_electric rail_fast ship" speed="3.65" length="1.44" shape="2077.35,1434.68 2078.60,1435.40"/>
    </edge>
    <edge id=":1286462389_11" function="internal">
        <lane id=":1286462389_11_0" index="0" disallow="tram rail_urban rail rail_electric rail_fast ship" speed="3.65" length="3.23" shape="2078.60,1435.40 2079.05,1436.17 2078.70,1436.99 2077.56,1437.87"/>
    </edge>
    <edge id=":1286462788_0" function="internal">
        <lane id=":1286462788_0_0" index="0" disallow="tram rail_urban rail rail_electric rail_fast ship" speed="6.76" length="9.50" shape="2473.76,1429.31 2473.20,1426.78 2471.97,1425.00 2470.07,1423.98 2467.50,1423.70"/>
    </edge>
    <edge id=":1286462788_1" function="internal">
        <lane id=":1286462788_1_0" index="0" disallow="tram rail_urban rail rail_electric rail_fast ship" speed="22.22" length="14.71" shape="2473.76,1429.31 2472.59,1414.65"/>
    </edge>
    <edge id=":1286462788_2" function="internal">
        <lane id=":1286462788_2_0" index="0" disallow="tram rail_urban rail rail_electric rail_fast ship" speed="7.91" length="14.39" shape="2473.76,1429.31 2474.02,1425.35 2475.49,1422.48 2478.19,1420.71 2482.10,1420.04"/>
    </edge>
    <edge id=":1286462788_3" function="internal">
        <lane id=":1286462788_3_0" index="0" disallow="tram rail_urban rail rail_electric rail_fast ship" speed="3.65" length="4.67" shape="2473.76,1429.31 2474.47,1428.05 2475.23,1427.59 2476.06,1427.93 2476.95,1429.06"/>
    </edge>
    <edge id=":1286462788_4" function="internal">
        <lane id=":1286462788_4_0" index="0" disallow="tram rail_urban rail rail_electric rail_fast ship" speed="6.40" length="9.04" shape="2482.19,1423.24 2479.73,1423.66 2478.04,1424.77 2477.11,1426.57 2476.95,1429.06"/>
    </edge>
    <edge id=":1286462788_5" function="internal">
        <lane id=":1286462788_5_0" index="0" disallow="tram rail_urban rail rail_electric rail_fast ship" speed="27.78" length="14.70" shape="2482.19,1423.24 2467.50,1423.70"/>
    </edge>
    <edge id=":1286462788_6" function="internal">
        <lane id=":1286462788_6_0" index="0" disallow="tram rail_urban rail rail_electric rail_fast ship" speed="8.25" length="4.11" shape="2482.19,1423.24 2478.26,1422.79 2478.13,1422.72"/>
    </edge>
    <edge id=":1286462788_7" function="internal">
        <lane id=":1286462788_7_0" index="0" disallow="tram rail_urban rail rail_electric rail_fast ship" speed="3.65" length="1.44" shape="2482.19,1423.24 2480.97,1422.47"/>
    </edge>
    <edge id=":1286462788_16" function="internal">
        <lane id=":1286462788_16_0" index="0" disallow="tram rail_urban rail rail_electric rail_fast ship" speed="8.25" length="10.41" shape="2478.13,1422.72 2475.35,1421.21 2473.46,1418.50 2472.59,1414.65"/>
    </edge>
    <edge id=":1286462788_17" function="internal">
        <lane id=":1286462788_17_0" index="0" disallow="tram rail_urban rail rail_electric rail_fast ship" speed="3.65" length="3.23" shape="2480.97,1422.47 2480.55,1421.68 2480.92,1420.87 2482.10,1420.04"/>
    </edge>
    <edge id=":1286462788_8" function="internal">
        <lane id=":1286462788_8_0" index="0" disallow="tram rail_urban rail rail_electric rail_fast ship" speed="6.80" length="9.56" shape="2475.78,1414.39 2476.35,1416.92 2477.60,1418.71 2479.51,1419.75 2482.10,1420.04"/>
    </edge>
    <edge id=":1286462788_9" function="internal">
        <lane id=":1286462788_9_0" index="0" disallow="tram rail_urban rail rail_electric rail_fast ship" speed="22.22" length="14.72" shape="2475.78,1414.39 2476.95,1429.06"/>
    </edge>
    <edge id=":1286462788_10" function="internal">
        <lane id=":1286462788_10_0" index="0" disallow="tram rail_urban rail rail_electric rail_fast ship" speed="7.92" length="14.37" shape="2475.78,1414.39 2475.54,1418.34 2474.07,1421.21 2471.39,1423.00 2467.50,1423.70"/>
    </edge>
    <edge id=":1286462788_11" function="internal">
        <lane id=":1286462788_11_0" index="0" disallow="tram rail_urban rail rail_electric rail_fast ship" speed="3.65" length="4.67" shape="2475.78,1414.39 2475.08,1415.65 2474.32,1416.11 2473.49,1415.78 2472.59,1414.65"/>
    </edge>
    <edge id=":1286462788_12" function="internal">
        <lane id=":1286462788_12_0" index="0" disallow="tram rail_urban rail rail_electric rail_fast ship" speed="6.41" length="9.04" shape="2467.38,1420.50 2469.83,1420.06 2471.52,1418.94 2472.44,1417.13 2472.59,1414.65"/>
    </edge>
    <edge id=":1286462788_13" function="internal">
        <lane id=":1286462788_13_0" index="0" disallow="tram rail_urban rail rail_electric rail_fast ship" speed="27.78" length="14.73" shape="2467.38,1420.50 2482.10,1420.04"/>
    </edge>
    <edge id=":1286462788_14" function="internal">
        <lane id=":1286462788_14_0" index="0" disallow="tram rail_urban rail rail_electric rail_fast ship" speed="8.21" length="4.16" shape="2467.38,1420.50 2471.31,1420.92 2471.49,1421.02"/>
    </edge>
    <edge id=":1286462788_15" function="internal">
        <lane id=":1286462788_15_0" index="0" disallow="tram rail_urban rail rail_electric rail_fast ship" speed="3.65" length="1.44" shape="2467.38,1420.50 2468.61,1421.26"/>
    </edge>
    <edge id=":1286462788_18" function="internal">
        <lane id=":1286462788_18_0" index="0" disallow="tram rail_urban rail rail_electric rail_fast ship" speed="8.21" length="10.35" shape="2471.49,1421.02 2474.21,1422.48 2476.09,1425.20 2476.95,1429.06"/>
    </edge>
    <edge id=":1286462788_19" function="internal">
        <lane id=":1286462788_19_0" index="0" disallow="tram rail_urban rail rail_electric rail_fast ship" speed="3.65" length="3.23" shape="2468.61,1421.26 2469.04,1422.05 2468.67,1422.86 2467.50,1423.70"/>
    </edge>
    <edge id=":1286463120_0" function="internal">
        <lane id=":1286463120_0_0" index="0" disallow="tram rail_urban rail rail_electric rail_fast ship" speed="27.78" length="14.51" shape="2705.68,1416.95 2691.18,1417.49"/>
    </edge>
    <edge id=":1286463120_1" function="internal">
        <lane id=":1286463120_1_0" index="0" disallow="tram rail_urban rail rail_electric rail_fast ship" speed="8.21" length="4.04" shape="2705.68,1416.95 2701.89,1416.57 2701.69,1416.45"/>
    </edge>
    <edge id=":1286463120_2" function="internal">
        <lane id=":1286463120_2_0" index="0" disallow="tram rail_urban rail rail_electric rail_fast ship" speed="3.65" length="1.44" shape="2705.68,1416.95 2704.44,1416.20"/>
    </edge>
    <edge id=":1286463120_9" function="internal">
        <lane id=":1286463120_9_0" index="0" disallow="tram rail_urban rail rail_electric rail_fast ship" speed="8.21" length="10.29" shape="2701.69,1416.45 2699.05,1415.02 2697.16,1412.31 2696.22,1408.43"/>
    </edge>
    <edge id=":1286463120_10" function="internal">
        <lane id=":1286463120_10_0" index="0" disallow="tram rail_urban rail rail_electric rail_fast ship" speed="3.65" length="3.23" shape="2704.44,1416.20 2704.00,1415.42 2704.37,1414.61 2705.53,1413.75"/>
    </edge>
    <edge id=":1286463120_3" function="internal">
        <lane id=":1286463120_3_0" index="0" disallow="tram rail_urban rail rail_electric rail_fast ship" speed="6.76" length="9.39" shape="2699.40,1408.10 2700.02,1410.67 2701.24,1412.47 2703.08,1413.49 2705.53,1413.75"/>
    </edge>
    <edge id=":1286463120_4" function="internal">
        <lane id=":1286463120_4_0" index="0" disallow="tram rail_urban rail rail_electric rail_fast ship" speed="7.87" length="14.49" shape="2699.40,1408.10 2699.25,1412.11 2697.83,1415.01 2695.14,1416.80 2691.18,1417.49"/>
    </edge>
    <edge id=":1286463120_5" function="internal">
        <lane id=":1286463120_5_0" index="0" disallow="tram rail_urban rail rail_electric rail_fast ship" speed="3.65" length="4.67" shape="2699.40,1408.10 2698.73,1409.38 2697.98,1409.86 2697.14,1409.54 2696.22,1408.43"/>
    </edge>
    <edge id=":1286463120_6" function="internal">
        <lane id=":1286463120_6_0" index="0" disallow="tram rail_urban rail rail_electric rail_fast ship" speed="6.35" length="9.04" shape="2691.09,1414.29 2693.56,1413.86 2695.24,1412.74 2696.12,1410.93 2696.22,1408.43"/>
    </edge>
    <edge id=":1286463120_7" function="internal">
        <lane id=":1286463120_7_0" index="0" disallow="tram rail_urban rail rail_electric rail_fast ship" speed="27.78" length="14.45" shape="2691.09,1414.29 2705.53,1413.75"/>
    </edge>
    <edge id=":1286463120_8" function="internal">
        <lane id=":1286463120_8_0" index="0" disallow="tram rail_urban rail rail_electric rail_fast ship" speed="3.65" length="1.44" shape="2691.09,1414.29 2692.31,1415.05"/>
    </edge>
    <edge id=":1286463120_11" function="internal">
        <lane id=":1286463120_11_0" index="0" disallow="tram rail_urban rail rail_electric rail_fast ship" speed="3.65" length="3.23" shape="2692.31,1415.05 2692.74,1415.84 2692.36,1416.65 2691.18,1417.49"/>
    </edge>
    <edge id=":1668249870_0" function="internal">
        <lane id=":1668249870_0_0" index="0" disallow="tram rail_urban rail rail_electric rail_fast ship" speed="27.78" length="0.22" shape="1860.79,694.78 1860.83,695.00"/>
    </edge>
    <edge id=":1668711790_0" function="internal">
        <lane id=":1668711790_0_0" index="0" disallow="tram rail_urban rail rail_electric rail_fast ship" speed="3.65" length="4.67" shape="55.61,1657.31 54.39,1656.54 53.97,1655.75 54.35,1654.94 55.53,1654.11"/>
    </edge>
    <edge id=":1670156036_0" function="internal">
        <lane id=":1670156036_0_0" index="0" disallow="tram rail_urban rail rail_electric rail_fast ship" speed="27.78" length="0.29" shape="2417.31,672.27 2417.34,672.56"/>
    </edge>
    <edge id=":2395874691_0" function="internal">
        <lane id=":2395874691_0_0" index="0" disallow="tram rail_urban rail rail_electric rail_fast ship" speed="6.43" length="9.03" shape="1430.66,1472.48 1430.29,1470.02 1429.21,1468.30 1427.43,1467.32 1424.96,1467.08"/>
    </edge>
    <edge id=":2395874691_1" function="internal">
        <lane id=":2395874691_1_0" index="0" disallow="tram rail_urban rail rail_electric rail_fast ship" speed="27.78" length="14.58" shape="1430.66,1472.48 1430.50,1457.90"/>
    </edge>
    <edge id=":2395874691_2" function="internal">
        <lane id=":2395874691_2_0" index="0" disallow="tram rail_urban rail rail_electric rail_fast ship" speed="8.13" length="4.10" shape="1430.66,1472.48 1431.18,1468.58 1431.26,1468.44"/>
    </edge>
    <edge id=":2395874691_3" function="internal">
        <lane id=":2395874691_3_0" index="0" disallow="tram rail_urban rail rail_electric rail_fast ship" speed="3.65" length="1.44" shape="1430.66,1472.48 1431.45,1471.27"/>
    </edge>
    <edge id=":2395874691_16" function="internal">
        <lane id=":2395874691_16_0" index="0" disallow="tram rail_urban rail rail_electric rail_fast ship" speed="8.13" length="10.28" shape="1431.26,1468.44 1432.81,1465.74 1435.55,1463.98 1439.41,1463.29"/>
    </edge>
    <edge id=":2395874691_17" function="internal">
        <lane id=":2395874691_17_0" index="0" disallow="tram rail_urban rail rail_electric rail_fast ship" speed="3.65" length="3.23" shape="1431.45,1471.27 1432.25,1470.87 1433.05,1471.26 1433.86,1472.45"/>
    </edge>
    <edge id=":2395874691_4" function="internal">
        <lane id=":2395874691_4_0" index="0" disallow="tram rail_urban rail rail_electric rail_fast ship" speed="6.66" length="9.33" shape="1439.52,1466.48 1437.03,1466.94 1435.25,1468.08 1434.20,1469.92 1433.86,1472.45"/>
    </edge>
    <edge id=":2395874691_5" function="internal">
        <lane id=":2395874691_5_0" index="0" disallow="tram rail_urban rail rail_electric rail_fast ship" speed="27.78" length="14.58" shape="1439.52,1466.48 1424.96,1467.08"/>
    </edge>
    <edge id=":2395874691_6" function="internal">
        <lane id=":2395874691_6_0" index="0" disallow="tram rail_urban rail rail_electric rail_fast ship" speed="7.96" length="4.05" shape="1439.52,1466.48 1435.62,1466.07 1435.51,1466.01"/>
    </edge>
    <edge id=":2395874691_7" function="internal">
        <lane id=":2395874691_7_0" index="0" disallow="tram rail_urban rail rail_electric rail_fast ship" speed="3.65" length="1.44" shape="1439.52,1466.48 1438.30,1465.73"/>
    </edge>
    <edge id=":2395874691_18" function="internal">
        <lane id=":2395874691_18_0" index="0" disallow="tram rail_urban rail rail_electric rail_fast ship" speed="7.96" length="10.23" shape="1435.51,1466.01 1432.82,1464.50 1431.11,1461.77 1430.50,1457.90"/>
    </edge>
    <edge id=":2395874691_19" function="internal">
        <lane id=":2395874691_19_0" index="0" disallow="tram rail_urban rail rail_electric rail_fast ship" speed="3.65" length="3.23" shape="1438.30,1465.73 1437.87,1464.94 1438.24,1464.13 1439.41,1463.29"/>
    </edge>
    <edge id=":2395874691_8" function="internal">
        <lane id=":2395874691_8_0" index="0" disallow="tram rail_urban rail rail_electric rail_fast ship" speed="6.46" length="9.03" shape="1433.70,1457.85 1434.09,1460.31 1435.16,1462.03 1436.94,1463.02 1439.41,1463.29"/>
    </edge>
    <edge id=":2395874691_9" function="internal">
        <lane id=":2395874691_9_0" index="0" disallow="tram rail_urban rail rail_electric rail_fast ship" speed="27.78" length="14.60" shape="1433.70,1457.85 1433.86,1472.45"/>
    </edge>
    <edge id=":2395874691_10" function="internal">
        <lane id=":2395874691_10_0" index="0" disallow="tram rail_urban rail rail_electric rail_fast ship" speed="8.15" length="4.11" shape="1433.70,1457.85 1433.20,1461.74 1433.10,1461.91"/>
    </edge>
    <edge id=":2395874691_11" function="internal">
        <lane id=":2395874691_11_0" index="0" disallow="tram rail_urban rail rail_electric rail_fast ship" speed="3.65" length="1.44" shape="1433.70,1457.85 1432.92,1459.06"/>
    </edge>
    <edge id=":2395874691_20" function="internal">
        <lane id=":2395874691_20_0" index="0" disallow="tram rail_urban rail rail_electric rail_fast ship" speed="8.15" length="10.28" shape="1433.10,1461.91 1431.57,1464.57 1428.83,1466.35 1424.96,1467.08"/>
    </edge>
    <edge id=":2395874691_21" function="internal">
        <lane id=":2395874691_21_0" index="0" disallow="tram rail_urban rail rail_electric rail_fast ship" speed="3.65" length="3.23" shape="1432.92,1459.06 1432.12,1459.48 1431.32,1459.09 1430.50,1457.90"/>
    </edge>
    <edge id=":2395874691_12" function="internal">
        <lane id=":2395874691_12_0" index="0" disallow="tram rail_urban rail rail_electric rail_fast ship" speed="6.68" length="9.35" shape="1424.81,1463.88 1427.33,1463.41 1429.12,1462.25 1430.17,1460.42 1430.50,1457.90"/>
    </edge>
    <edge id=":2395874691_13" function="internal">
        <lane id=":2395874691_13_0" index="0" disallow="tram rail_urban rail rail_electric rail_fast ship" speed="27.78" length="14.61" shape="1424.81,1463.88 1439.41,1463.29"/>
    </edge>
    <edge id=":2395874691_14" function="internal">
        <lane id=":2395874691_14_0" index="0" disallow="tram rail_urban rail rail_electric rail_fast ship" speed="7.94" length="4.13" shape="1424.81,1463.88 1428.74,1464.26 1428.90,1464.35"/>
    </edge>
    <edge id=":2395874691_15" function="internal">
        <lane id=":2395874691_15_0" index="0" disallow="tram rail_urban rail rail_electric rail_fast ship" speed="3.65" length="1.44" shape="1424.81,1463.88 1426.05,1464.62"/>
    </edge>
    <edge id=":2395874691_22" function="internal">