<?xml version="1.0" encoding="UTF-8"?>

<!-- generated on 2022-10-22 00:05:58.671504 by randomTrips.py v1_14_1+0000-f654d7b963e
<configuration>
    <insertion-density value="360.0"/>
    <net-file value="osm.net.xml"/>
    <route-file value="routes.rou.xml"/>
</configuration>
-->

<routes xmlns:xsi="http://www.w3.org/2001/XMLSchema-instance" xsi:noNamespaceSchemaLocation="http://sumo.dlr.de/xsd/routes_file.xsd">
    <trip id="0" depart="0.00" from="388982896" to="-1012639044#3"/>
    <trip id="1" depart="0.08" from="-832117945#1" to="-519323446"/>
    <trip id="2" depart="0.17" from="532529595#3" to="519323436#3"/>
    <trip id="3" depart="0.25" from="833493243#6" to="-113467539#0"/>
    <trip id="4" depart="0.34" from="1015040609#5" to="-1012639044#5"/>
    <trip id="5" depart="0.42" from="-641126492#1" to="154261209#5"/>
    <trip id="6" depart="0.50" from="-1012639044#4" to="-519323441#1"/>
    <trip id="7" depart="0.59" from="388982897#3" to="154646651#5"/>
    <trip id="8" depart="0.67" from="-641126492#1" to="250490019#2"/>
    <trip id="9" depart="0.76" from="641843738#6" to="-1009909875#2"/>
    <trip id="10" depart="0.84" from="641843738#5" to="519323440#2"/>
    <trip id="11" depart="0.92" from="1009909875#3" to="-388982897#3"/>
    <trip id="12" depart="1.01" from="834989740#1" to="-965584936#1"/>
    <trip id="13" depart="1.09" from="-231177199#5" to="-231177199#3"/>
    <trip id="14" depart="1.17" from="832118418#2" to="353612855#1"/>
    <trip id="15" depart="1.26" from="641843738#5" to="519323447#1"/>
    <trip id="16" depart="1.34" from="154646651#5" to="834989740#4"/>
    <trip id="17" depart="1.43" from="1012639046#0" to="154646651#7"/>
    <trip id="18" depart="1.51" from="832117361#2" to="353612862#3"/>
    <trip id="19" depart="1.59" from="832517451#2" to="231177199#6"/>
    <trip id="20" depart="1.68" from="519323442#0" to="-1012639046#0"/>
    <trip id="21" depart="1.76" from="-641126492#3" to="-832117945#1"/>
    <trip id="22" depart="1.85" from="-1021255737" to="-519323447#2"/>
    <trip id="23" depart="1.93" from="-231177199#7" to="-832117361#0"/>
    <trip id="24" depart="2.01" from="388982895" to="1012639044#0"/>
    <trip id="25" depart="2.10" from="1012639045#1" to="-519323442#1"/>
    <trip id="26" depart="2.18" from="-832117361#1" to="834985796#6"/>
    <trip id="27" depart="2.27" from="388982897#3" to="353612862#0"/>
    <trip id="28" depart="2.35" from="-519323440#2" to="519323447#1"/>
    <trip id="29" depart="2.43" from="-519323439#0" to="1012639045#0"/>
    <trip id="30" depart="2.52" from="965584938#2" to="388982896"/>
    <trip id="31" depart="2.60" from="231177199#2" to="519323438#2"/>
    <trip id="32" depart="2.69" from="832118418#1" to="580853946#7"/>
    <trip id="33" depart="2.77" from="-641126492#4" to="-1012639044#5"/>
    <trip id="34" depart="2.85" from="-965584933" to="-641843738#5"/>
    <trip id="35" depart="2.94" from="-519323447#2" to="834989736#3"/>
    <trip id="36" depart="3.02" from="833493241#1" to="-833493243#0"/>
    <trip id="37" depart="3.11" from="388982898#0" to="1012639046#1"/>
    <trip id="38" depart="3.19" from="834985796#0" to="1015040650#2"/>
    <trip id="39" depart="3.27" from="-832117361#1" to="-641126492#4"/>
    <trip id="40" depart="3.36" from="231177199#3" to="-641843738#4"/>
    <trip id="41" depart="3.44" from="250490019#2" to="833493243#6"/>
    <trip id="42" depart="3.52" from="1012639050#2" to="-519323445#0"/>
    <trip id="43" depart="3.61" from="975866592" to="154261209#6"/>
    <trip id="44" depart="3.69" from="-231177199#4" to="-1012639046#0"/>
    <trip id="45" depart="3.78" from="-250490019#2" to="353612862#7"/>
    <trip id="46" depart="3.86" from="641843738#1" to="1015040609#1"/>
    <trip id="47" depart="3.94" from="-1012707127" to="1012639045#0"/>
    <trip id="48" depart="4.03" from="970321804" to="154489976#1"/>
    <trip id="49" depart="4.11" from="86096921" to="832137734"/>
    <trip id="50" depart="4.20" from="-1009909875#4" to="519323445#0"/>
    <trip id="51" depart="4.28" from="519323438#1" to="154646651#3"/>
    <trip id="52" depart="4.36" from="-832117361#1" to="388982896"/>
    <trip id="53" depart="4.45" from="-353612854#0" to="1015040609#5"/>
    <trip id="54" depart="4.53" from="1069574886#1" to="834989739#2"/>
    <trip id="55" depart="4.62" from="833493241#1" to="-641843738#4"/>
    <trip id="56" depart="4.70" from="154261209#8" to="-519323436#3"/>
    <trip id="57" depart="4.78" from="834985796#0" to="832517451#2"/>
    <trip id="58" depart="4.87" from="-833493243#0" to="388982895"/>
    <trip id="59" depart="4.95" from="353612862#2" to="-388982897#2"/>
    <trip id="60" depart="5.04" from="580853946#3" to="154646651#3"/>
    <trip id="61" depart="5.12" from="641126492#1" to="154646651#1"/>
    <trip id="62" depart="5.20" from="-1009909875#0" to="-833493243#5"/>
    <trip id="63" depart="5.29" from="-1012639044#0" to="834985796#3"/>
    <trip id="64" depart="5.37" from="833493243#1" to="830627880#1"/>
    <trip id="65" depart="5.46" from="-833493243#4" to="-1012639050#0"/>
    <trip id="66" depart="5.54" from="833493241#1" to="834989738#1"/>
    <trip id="67" depart="5.62" from="-231177199#3" to="113467440#1"/>
    <trip id="68" depart="5.71" from="-1015040635#0" to="532529595#9"/>
    <trip id="69" depart="5.79" from="580853946#5" to="-353612854#0"/>
    <trip id="70" depart="5.87" from="113467539#2" to="154646651#6"/>
    <trip id="71" depart="5.96" from="-832117361#1" to="832517451#4"/>
    <trip id="72" depart="6.04" from="1015040609#6" to="-519323442#3"/>
    <trip id="73" depart="6.13" from="154646651#6" to="519323447#1"/>
    <trip id="74" depart="6.21" from="-519323446" to="-833493241#1"/>
    <trip id="75" depart="6.29" from="970321804" to="388982897#3"/>
    <trip id="76" depart="6.38" from="1015040650#2" to="154261209#8"/>
    <trip id="77" depart="6.46" from="-353612855#0" to="-519323447#0"/>
    <trip id="78" depart="6.55" from="1009909875#2" to="250490019#2"/>
    <trip id="79" depart="6.63" from="-641126492#4" to="-519323445#0"/>
    <trip id="80" depart="6.71" from="-1015040635#1" to="353612862#8"/>
    <trip id="81" depart="6.80" from="-641126492#4" to="834985791#3"/>
    <trip id="82" depart="6.88" from="832517451#1" to="-1015040635#1"/>
    <trip id="83" depart="6.97" from="-641843738#1" to="505097816#7"/>
    <trip id="84" depart="7.05" from="-580853940" to="-353612854#2"/>
    <trip id="85" depart="7.13" from="834989736#3" to="231177199#4"/>
    <trip id="86" depart="7.22" from="113467539#0" to="641126492#1"/>
    <trip id="87" depart="7.30" from="641843738#5" to="-519323440#0"/>
    <trip id="88" depart="7.39" from="-231177199#6" to="1015040609#4"/>
    <trip id="89" depart="7.47" from="1015040609#6" to="1015040650#5"/>
    <trip id="90" depart="7.55" from="519323447#2" to="519323436#2"/>
    <trip id="91" depart="7.64" from="965584936#1" to="-231177199#3"/>
    <trip id="92" depart="7.72" from="1012707127" to="-965584938#0"/>
    <trip id="93" depart="7.81" from="832517451#2" to="-641126492#4"/>
    <trip id="94" depart="7.89" from="-519323442#3" to="1015040635#1"/>
    <trip id="95" depart="7.97" from="1015040609#5" to="-832117361#0"/>
    <trip id="96" depart="8.06" from="-641843738#4" to="834985796#2"/>
    <trip id="97" depart="8.14" from="1015040650#3" to="832137734"/>
    <trip id="98" depart="8.22" from="154646651#9" to="-1012639046#1"/>
    <trip id="99" depart="8.31" from="975866592" to="832117361#1"/>
    <trip id="100" depart="8.39" from="834989740#5" to="834985796#2"/>
    <trip id="101" depart="8.48" from="832118418#2" to="-519323436#0"/>
    <trip id="102" depart="8.56" from="154261209#3" to="-519323444"/>
    <trip id="103" depart="8.64" from="1012707127" to="-1012639050#0"/>
    <trip id="104" depart="8.73" from="1012639046#1" to="965584936#1"/>
    <trip id="105" depart="8.81" from="-832117361#1" to="641126492#1"/>
    <trip id="106" depart="8.90" from="1069574886#1" to="1015040609#2"/>
    <trip id="107" depart="8.98" from="834989740#1" to="965584938#2"/>
    <trip id="108" depart="9.06" from="231177199#2" to="519323444"/>
    <trip id="109" depart="9.15" from="-519323436#3" to="-832118418#1"/>
    <trip id="110" depart="9.23" from="834989740#5" to="231177199#6"/>
    <trip id="111" depart="9.32" from="154646651#7" to="532529595#5"/>
    <trip id="112" depart="9.40" from="-1012639050#0" to="231177199#7"/>
    <trip id="113" depart="9.48" from="154261209#8" to="832118418#0"/>
    <trip id="114" depart="9.57" from="-519323436#3" to="834989739#5"/>
    <trip id="115" depart="9.65" from="-1021255737" to="-519323439#0"/>
    <trip id="116" depart="9.74" from="353612854#2" to="519323436#2"/>
    <trip id="117" depart="9.82" from="-641126492#6" to="-250490019#0"/>
    <trip id="118" depart="9.90" from="833493243#6" to="-641126492#3"/>
    <trip id="119" depart="9.99" from="353612854#2" to="353612862#3"/>
    <trip id="120" depart="10.07" from="1015040609#5" to="231177199#7"/>
    <trip id="121" depart="10.15" from="154646651#1" to="834985796#6"/>
    <trip id="122" depart="10.24" from="-519323447#0" to="519323443#1"/>
    <trip id="123" depart="10.32" from="-641843738#1" to="1012639046#1"/>
    <trip id="124" depart="10.41" from="519323436#1" to="-832137052"/>
    <trip id="125" depart="10.49" from="-965584936#0" to="532529595#6"/>
    <trip id="126" depart="10.57" from="-1015040635#1" to="1015040650#2"/>
    <trip id="127" depart="10.66" from="975866592" to="965584938#2"/>
    <trip id="128" depart="10.74" from="-1015040635#1" to="-519323442#3"/>
    <trip id="129" depart="10.83" from="-832117361#1" to="834985796#5"/>
    <trip id="130" depart="10.91" from="833493243#1" to="833493239#1"/>
    <trip id="131" depart="10.99" from="1012639045#1" to="-388982897#3"/>
    <trip id="132" depart="11.08" from="832117945#1" to="519323442#0"/>
    <trip id="133" depart="11.16" from="353612862#3" to="965584936#1"/>
    <trip id="134" depart="11.25" from="388982897#4" to="-1009909875#3"/>
    <trip id="135" depart="11.33" from="827278173#0" to="-832137052"/>
    <trip id="136" depart="11.41" from="505097816#4" to="834985796#7"/>
    <trip id="137" depart="11.50" from="-388982897#4" to="-231177199#8"/>
    <trip id="138" depart="11.58" from="-250490019#2" to="154646651#7"/>
    <trip id="139" depart="11.67" from="-832117945#1" to="353612855#1"/>
    <trip id="140" depart="11.75" from="519323445#0" to="-519323442#0"/>
    <trip id="141" depart="11.83" from="388982895" to="-641843738#4"/>
    <trip id="142" depart="11.92" from="154261209#3" to="834985791#3"/>
    <trip id="143" depart="12.00" from="832118418#2" to="-231177199#2"/>
    <trip id="144" depart="12.09" from="1015040609#6" to="-832117361#0"/>
    <trip id="145" depart="12.17" from="-1009909875#0" to="580853946#3"/>
    <trip id="146" depart="12.25" from="388982896" to="-641843738#4"/>
    <trip id="147" depart="12.34" from="532529595#4" to="154646651#7"/>
    <trip id="148" depart="12.42" from="1015040609#9" to="-1009909875#3"/>
    <trip id="149" depart="12.50" from="-1021255735" to="833493241#1"/>
    <trip id="150" depart="12.59" from="834985791#5" to="154646651#5"/>
    <trip id="151" depart="12.67" from="832117945#2" to="231177199#7"/>
    <trip id="152" depart="12.76" from="-519323436#1" to="-353612854#0"/>
    <trip id="153" depart="12.84" from="-833493243#4" to="833493243#6"/>
    <trip id="154" depart="12.92" from="641843738#2" to="832137734"/>
    <trip id="155" depart="13.01" from="834985791#3" to="-519323442#3"/>
    <trip id="156" depart="13.09" from="-641843738#4" to="-231177199#4"/>
    <trip id="157" depart="13.18" from="641126492#2" to="833493241#1"/>
    <trip id="158" depart="13.26" from="1015040609#1" to="353612862#3"/>
    <trip id="159" depart="13.34" from="-519323436#3" to="834985796#3"/>
    <trip id="160" depart="13.43" from="832517451#4" to="834989740#5"/>
    <trip id="161" depart="13.51" from="641843738#6" to="833493239#1"/>
    <trip id="162" depart="13.60" from="-1012639044#3" to="532529595#2"/>
    <trip id="163" depart="13.68" from="1009909875#0" to="834985796#5"/>
    <trip id="164" depart="13.76" from="641843738#4" to="832517451#1"/>
    <trip id="165" depart="13.85" from="641843738#6" to="-641843738#5"/>
    <trip id="166" depart="13.93" from="641126492#4" to="-231177199#6"/>
    <trip id="167" depart="14.02" from="833493239#1" to="832118418#2"/>
    <trip id="168" depart="14.10" from="-641126492#2" to="641843738#5"/>
    <trip id="169" depart="14.18" from="1069574888#3" to="-833493241#0"/>
    <trip id="170" depart="14.27" from="641843738#2" to="-519323447#0"/>
    <trip id="171" depart="14.35" from="-1012639044#3" to="-519323440#2"/>
    <trip id="172" depart="14.44" from="-965584938#2" to="832517451#1"/>
    <trip id="173" depart="14.52" from="834989740#4" to="-832117361#0"/>
    <trip id="174" depart="14.60" from="388982897#0" to="1012639049#0"/>
    <trip id="175" depart="14.69" from="965584934" to="154646651#11"/>
    <trip id="176" depart="14.77" from="834989738#1" to="-231177199#8"/>
    <trip id="177" depart="14.85" from="834989740#5" to="-519323436#3"/>
    <trip id="178" depart="14.94" from="834989740#3" to="-641843738#5"/>
    <trip id="179" depart="15.02" from="-250490019#2" to="1015040609#5"/>
    <trip id="180" depart="15.11" from="519323447#2" to="-833493243#0"/>
    <trip id="181" depart="15.19" from="353612862#0" to="154261209#7"/>
    <trip id="182" depart="15.27" from="1012639049#0" to="231177199#5"/>
    <trip id="183" depart="15.36" from="-641843738#6" to="519323442#1"/>
    <trip id="184" depart="15.44" from="-1009909875#0" to="834985796#2"/>
    <trip id="185" depart="15.53" from="154646651#6" to="519323444"/>
    <trip id="186" depart="15.61" from="532529595#4" to="519323436#1"/>
    <trip id="187" depart="15.69" from="1012639045#0" to="-1015040635#1"/>
    <trip id="188" depart="15.78" from="505097816#4" to="-965584933"/>
    <trip id="189" depart="15.86" from="-965584933" to="832117945#2"/>
    <trip id="190" depart="15.95" from="519323445#0" to="-832137052"/>
    <trip id="191" depart="16.03" from="-833493243#5" to="1012639050#1"/>
    <trip id="192" depart="16.11" from="1012707127" to="-832118418#1"/>
    <trip id="193" depart="16.20" from="-388982897#2" to="1015040609#1"/>
    <trip id="194" depart="16.28" from="834989738#1" to="519323436#3"/>
    <trip id="195" depart="16.37" from="834985791#5" to="353612862#2"/>
    <trip id="196" depart="16.45" from="-833493243#0" to="154646651#6"/>
    <trip id="197" depart="16.53" from="-1009909875#0" to="-832117945#1"/>
    <trip id="198" depart="16.62" from="1015040609#9" to="231177199#6"/>
    <trip id="199" depart="16.70" from="388982898#0" to="1015040650#4"/>
    <trip id="200" depart="16.78" from="1015040650#3" to="-519323444"/>
    <trip id="201" depart="16.87" from="113467539#0" to="833493245#1"/>
    <trip id="202" depart="16.95" from="641843738#2" to="-519323436#1"/>
    <trip id="203" depart="17.04" from="-231177199#3" to="154261209#8"/>
    <trip id="204" depart="17.12" from="388982895" to="-965584936#1"/>
    <trip id="205" depart="17.20" from="827278173#0" to="532529595#6"/>
    <trip id="206" depart="17.29" from="519323436#2" to="-519323447#0"/>
    <trip id="207" depart="17.37" from="-519323446" to="-1012639044#3"/>
    <trip id="208" depart="17.46" from="-641843738#3" to="1069574886#3"/>
    <trip id="209" depart="17.54" from="832137734" to="-1015040635#1"/>
    <trip id="210" depart="17.62" from="1015040609#3" to="353612862#8"/>
    <trip id="211" depart="17.71" from="-519323444" to="519323440#2"/>
    <trip id="212" depart="17.79" from="154261209#6" to="-641126492#3"/>
    <trip id="213" depart="17.88" from="388982898#0" to="-1009909875#2"/>
    <trip id="214" depart="17.96" from="532529595#8" to="580853946#3"/>
    <trip id="215" depart="18.04" from="-231177199#8" to="1015040609#2"/>
    <trip id="216" depart="18.13" from="-519323441#0" to="834989739#3"/>
    <trip id="217" depart="18.21" from="154489976#1" to="-1012639046#1"/>
    <trip id="218" depart="18.30" from="-641843738#4" to="832117945#2"/>
    <trip id="219" depart="18.38" from="1069574888#2" to="641126492#6"/>
    <trip id="220" depart="18.46" from="505097816#7" to="965584936#1"/>
    <trip id="221" depart="18.55" from="353612854#2" to="834989739#1"/>
    <trip id="222" depart="18.63" from="833493243#6" to="353612862#10"/>
    <trip id="223" depart="18.72" from="519323445#0" to="154261209#5"/>
    <trip id="224" depart="18.80" from="832117361#2" to="154646651#6"/>
    <trip id="225" depart="18.88" from="834985791#3" to="532529595#4"/>
    <trip id="226" depart="18.97" from="113467539#2" to="-641843738#3"/>
    <trip id="227" depart="19.05" from="-641843738#4" to="388982895"/>
    <trip id="228" depart="19.13" from="580853946#5" to="154261209#9"/>
    <trip id="229" depart="19.22" from="388470139" to="-641843738#8"/>
    <trip id="230" depart="19.30" from="-1021255737" to="-832117361#4"/>
    <trip id="231" depart="19.39" from="-832117361#4" to="-833493243#1"/>
    <trip id="232" depart="19.47" from="154646651#6" to="-353612855#1"/>
    <trip id="233" depart="19.55" from="-641126492#4" to="519323440#0"/>
    <trip id="234" depart="19.64" from="519323442#1" to="-1012707127"/>
    <trip id="235" depart="19.72" from="1015040609#1" to="154646651#4"/>
    <trip id="236" depart="19.81" from="1015040609#4" to="-519323442#1"/>
    <trip id="237" depart="19.89" from="1015040609#5" to="834985791#3"/>
    <trip id="238" depart="19.97" from="250490019#0" to="519323440#2"/>
    <trip id="239" depart="20.06" from="832517451#1" to="580853946#2"/>
    <trip id="240" depart="20.14" from="1012639046#1" to="-1009909875#2"/>
    <trip id="241" depart="20.23" from="1012639044#0" to="532529595#6"/>
    <trip id="242" depart="20.31" from="832516003" to="834989739#2"/>
    <trip id="243" depart="20.39" from="1015040609#4" to="532529595#5"/>
    <trip id="244" depart="20.48" from="154646651#8" to="353612855#1"/>
    <trip id="245" depart="20.56" from="-641126492#1" to="-519323445#0"/>
    <trip id="246" depart="20.65" from="1015040648" to="-1012639044#4"/>
    <trip id="247" depart="20.73" from="1009909875#2" to="519323436#3"/>
    <trip id="248" depart="20.81" from="1012707127" to="-388982898#0"/>
    <trip id="249" depart="20.90" from="113467509#0" to="-353612854#0"/>
    <trip id="250" depart="20.98" from="353612862#8" to="-1012639044#4"/>
    <trip id="251" depart="21.07" from="1012639050#1" to="231177199#2"/>
    <trip id="252" depart="21.15" from="-1012639044#4" to="388982896"/>
    <trip id="253" depart="21.23" from="-388982897#4" to="1015040650#3"/>
    <trip id="254" depart="21.32" from="-1012639046#1" to="1012639045#0"/>
    <trip id="255" depart="21.40" from="-519323447#2" to="-833493243#5"/>
    <trip id="256" depart="21.48" from="580853946#3" to="1012639045#0"/>
    <trip id="257" depart="21.57" from="532529595#8" to="830627880#1"/>
    <trip id="258" depart="21.65" from="-641843738#5" to="-113467509#1"/>
    <trip id="259" depart="21.74" from="-1012639044#0" to="154646651#3"/>
    <trip id="260" depart="21.82" from="975866592" to="1009909875#2"/>
    <trip id="261" depart="21.90" from="388982897#3" to="641126490"/>
    <trip id="262" depart="21.99" from="388982897#4" to="532529595#8"/>
    <trip id="263" depart="22.07" from="834989739#3" to="-519323441#1"/>
    <trip id="264" depart="22.16" from="-1012639044#0" to="-388982897#2"/>
    <trip id="265" depart="22.24" from="-388982897#2" to="519323436#1"/>
    <trip id="266" depart="22.32" from="231177199#4" to="-519323445#0"/>
    <trip id="267" depart="22.41" from="519323441#1" to="580853946#2"/>
    <trip id="268" depart="22.49" from="-519323440#0" to="353612862#0"/>
    <trip id="269" depart="22.58" from="532529595#6" to="-231177199#8"/>
    <trip id="270" depart="22.66" from="827278173#0" to="834989740#1"/>
    <trip id="271" depart="22.74" from="-250490019#2" to="-1012639044#3"/>
    <trip id="272" depart="22.83" from="-833493243#5" to="519323436#3"/>
    <trip id="273" depart="22.91" from="834989740#1" to="1012639046#1"/>
    <trip id="274" depart="23.00" from="519323444" to="-1021255735"/>
    <trip id="275" depart="23.08" from="519323439#0" to="353612862#7"/>
    <trip id="276" depart="23.16" from="-231177199#7" to="580853946#5"/>
    <trip id="277" depart="23.25" from="832137734" to="353612854#3"/>
    <trip id="278" depart="23.33" from="-353612855#0" to="965584934"/>
    <trip id="279" depart="23.42" from="641126492#2" to="1009909875#0"/>
    <trip id="280" depart="23.50" from="1015040609#9" to="1012639044#1"/>
    <trip id="281" depart="23.58" from="154261209#9" to="-965584938#0"/>
    <trip id="282" depart="23.67" from="832137734" to="641843738#6"/>
    <trip id="283" depart="23.75" from="-231177199#8" to="834989739#5"/>
    <trip id="284" depart="23.83" from="388982895" to="827278173#1"/>
    <trip id="285" depart="23.92" from="519323442#1" to="1015040609#5"/>
    <trip id="286" depart="24.00" from="532529595#2" to="834989740#1"/>
    <trip id="287" depart="24.09" from="-832117361#4" to="641843738#2"/>
    <trip id="288" depart="24.17" from="154646651#6" to="1069574888#3"/>
    <trip id="289" depart="24.25" from="1015040648" to="519323447#1"/>
    <trip id="290" depart="24.34" from="-832117361#4" to="832118418#0"/>
    <trip id="291" depart="24.42" from="832117361#2" to="-113467539#0"/>
    <trip id="292" depart="24.51" from="833493243#1" to="-641126492#3"/>
    <trip id="293" depart="24.59" from="113467440#1" to="353612862#10"/>
    <trip id="294" depart="24.67" from="1012639046#1" to="-1012639044#4"/>
    <trip id="295" depart="24.76" from="832137734" to="-519323438#1"/>
    <trip id="296" depart="24.84" from="-519323447#2" to="641126492#6"/>
    <trip id="297" depart="24.93" from="1009909875#3" to="833493239#1"/>
    <trip id="298" depart="25.01" from="519323441#1" to="-832117361#0"/>
    <trip id="299" depart="25.09" from="-1009909875#3" to="834989738#1"/>
    <trip id="300" depart="25.18" from="-231177199#3" to="519323444"/>
    <trip id="301" depart="25.26" from="154261209#3" to="532529595#9"/>
    <trip id="302" depart="25.35" from="519323439#0" to="388982897#2"/>
    <trip id="303" depart="25.43" from="154261209#5" to="641126492#3"/>
    <trip id="304" depart="25.51" from="-231177199#5" to="-519323446"/>
    <trip id="305" depart="25.60" from="519323440#0" to="-833493241#0"/>
    <trip id="306" depart="25.68" from="250490019#0" to="1069574886#1"/>
    <trip id="307" depart="25.76" from="154646651#4" to="1015040609#2"/>
    <trip id="308" depart="25.85" from="532529595#5" to="-965584933"/>
    <trip id="309" depart="25.93" from="519323442#0" to="-641843738#6"/>
    <trip id="310" depart="26.02" from="-641843738#5" to="-250490019#0"/>
    <trip id="311" depart="26.10" from="-519323444" to="-250490019#0"/>
    <trip id="312" depart="26.18" from="154646651#5" to="580853940"/>
    <trip id="313" depart="26.27" from="-519323442#1" to="-519323444"/>
    <trip id="314" depart="26.35" from="154261209#0" to="519323446"/>
    <trip id="315" depart="26.44" from="965584933" to="154489976#0"/>
    <trip id="316" depart="26.52" from="-832118418#1" to="-231177199#4"/>
    <trip id="317" depart="26.60" from="-519323444" to="-519323447#0"/>
    <trip id="318" depart="26.69" from="-519323441#1" to="-1009909875#4"/>
    <trip id="319" depart="26.77" from="154646651#5" to="-641843738#8"/>
    <trip id="320" depart="26.86" from="965584933" to="154646651#7"/>
    <trip id="321" depart="26.94" from="519323440#2" to="-353612854#0"/>
    <trip id="322" depart="27.02" from="832517451#6" to="113467440#4"/>
    <trip id="323" depart="27.11" from="833493239#1" to="231177199#5"/>
    <trip id="324" depart="27.19" from="113467509#0" to="1015040609#6"/>
    <trip id="325" depart="27.28" from="-519323442#1" to="-1012639046#1"/>
    <trip id="326" depart="27.36" from="834989738#1" to="1069574886#3"/>
    <trip id="327" depart="27.44" from="827278173#1" to="1012639049#0"/>
    <trip id="328" depart="27.53" from="-1021255735" to="353612862#8"/>
    <trip id="329" depart="27.61" from="-1012639049#0" to="-388982897#0"/>
    <trip id="330" depart="27.70" from="231177199#4" to="-833493239#0"/>
    <trip id="331" depart="27.78" from="970321804" to="-250490019#0"/>
    <trip id="332" depart="27.86" from="580853946#3" to="353612855#1"/>
    <trip id="333" depart="27.95" from="641843738#1" to="-519323447#0"/>
    <trip id="334" depart="28.03" from="154646651#1" to="1015040635#1"/>
    <trip id="335" depart="28.11" from="1015040650#3" to="832118418#2"/>
    <trip id="336" depart="28.20" from="965584938#2" to="-833493241#0"/>
    <trip id="337" depart="28.28" from="353612862#7" to="353612862#0"/>
    <trip id="338" depart="28.37" from="532529595#4" to="834989738#1"/>
    <trip id="339" depart="28.45" from="-519323447#1" to="-519323442#3"/>
    <trip id="340" depart="28.53" from="505097816#0" to="-388982897#3"/>
    <trip id="341" depart="28.62" from="-519323441#0" to="-1021255735"/>
    <trip id="342" depart="28.70" from="-1009909875#0" to="1015040635#1"/>
    <trip id="343" depart="28.79" from="353612854#2" to="-832118418#0"/>
    <trip id="344" depart="28.87" from="-641126492#4" to="519323442#1"/>
    <trip id="345" depart="28.95" from="519323442#0" to="1015040648"/>
    <trip id="346" depart="29.04" from="519323438#2" to="834985796#2"/>
    <trip id="347" depart="29.12" from="641126492#4" to="353612862#7"/>
    <trip id="348" depart="29.21" from="505097816#0" to="834985796#5"/>
    <trip id="349" depart="29.29" from="1015040609#6" to="154646651#5"/>
    <trip id="350" depart="29.37" from="388982897#3" to="834985791#5"/>
    <trip id="351" depart="29.46" from="832117361#1" to="-1015040635#1"/>
    <trip id="352" depart="29.54" from="-519323440#0" to="-833493241#0"/>
    <trip id="353" depart="29.63" from="532529595#6" to="231177199#3"/>
    <trip id="354" depart="29.71" from="-833493239#0" to="-250490019#2"/>
    <trip id="355" depart="29.79" from="519323439#0" to="519323441#1"/>
    <trip id="356" depart="29.88" from="834989739#1" to="154261209#3"/>
    <trip id="357" depart="29.96" from="154261209#6" to="-1021255737"/>
    <trip id="358" depart="30.05" from="-1012639045#1" to="1015040609#4"/>
    <trip id="359" depart="30.13" from="-965584936#1" to="-641843738#1"/>
    <trip id="360" depart="30.21" from="-231177199#4" to="834989739#5"/>
    <trip id="361" depart="30.30" from="832117945#2" to="231177199#5"/>
    <trip id="362" depart="30.38" from="834989739#3" to="975866593"/>
    <trip id="363" depart="30.46" from="519323436#1" to="-641843738#6"/>
    <trip id="364" depart="30.55" from="-1012639045#1" to="532529595#8"/>
    <trip id="365" depart="30.63" from="113467509#0" to="388982897#4"/>
    <trip id="366" depart="30.72" from="834985796#2" to="-519323438#1"/>
    <trip id="367" depart="30.80" from="250490019#2" to="353612863#1"/>
    <trip id="368" depart="30.88" from="154261209#5" to="-231177199#0"/>
    <trip id="369" depart="30.97" from="1009909876" to="-965584936#0"/>
    <trip id="370" depart="31.05" from="519323436#1" to="832118418#2"/>
    <trip id="371" depart="31.14" from="-965584938#2" to="519323440#0"/>
    <trip id="372" depart="31.22" from="-833493239#0" to="834989738#1"/>
    <trip id="373" depart="31.30" from="641843738#8" to="154646651#6"/>
    <trip id="374" depart="31.39" from="1069574886#1" to="-833493243#0"/>
    <trip id="375" depart="31.47" from="-965584936#1" to="834989740#3"/>
    <trip id="376" depart="31.56" from="1012707127" to="154261209#7"/>
    <trip id="377" depart="31.64" from="965584936#2" to="388982898#0"/>
    <trip id="378" depart="31.72" from="154646651#7" to="1012639050#2"/>
    <trip id="379" depart="31.81" from="-519323442#3" to="1009909876"/>
    <trip id="380" depart="31.89" from="580853946#0" to="353612862#7"/>
    <trip id="381" depart="31.98" from="580853946#2" to="-519323442#0"/>
    <trip id="382" depart="32.06" from="154646651#9" to="834985796#3"/>
    <trip id="383" depart="32.14" from="1015040650#2" to="519323440#2"/>
    <trip id="384" depart="32.23" from="-353612855#1" to="834989740#4"/>
    <trip id="385" depart="32.31" from="353612862#2" to="-641126492#2"/>
    <trip id="386" depart="32.39" from="-519323438#1" to="154646651#6"/>
    <trip id="387" depart="32.48" from="231177199#0" to="-231177199#2"/>
    <trip id="388" depart="32.56" from="965584938#2" to="834985793#1"/>
    <trip id="389" depart="32.65" from="1069574888#3" to="-231177199#8"/>
    <trip id="390" depart="32.73" from="832117945#1" to="154261209#0"/>
    <trip id="391" depart="32.81" from="519323444" to="154261209#6"/>
    <trip id="392" depart="32.90" from="-832117945#1" to="832117361#1"/>
    <trip id="393" depart="32.98" from="965584934" to="-641126492#3"/>
    <trip id="394" depart="33.07" from="154646651#9" to="1012639045#1"/>
    <trip id="395" depart="33.15" from="834985796#3" to="154261209#6"/>
    <trip id="396" depart="33.23" from="833493243#1" to="832517451#1"/>
    <trip id="397" depart="33.32" from="-832118418#0" to="641126492#2"/>
    <trip id="398" depart="33.40" from="1015040609#3" to="834985796#6"/>
    <trip id="399" depart="33.49" from="154489972" to="641843738#6"/>
    <trip id="400" depart="33.57" from="-832118418#1" to="-832137052"/>
    <trip id="401" depart="33.65" from="250490019#2" to="975866593"/>
    <trip id="402" depart="33.74" from="154261209#5" to="-388982897#0"/>
    <trip id="403" depart="33.82" from="154646651#6" to="-965584938#2"/>
    <trip id="404" depart="33.91" from="231177199#0" to="154646651#4"/>
    <trip id="405" depart="33.99" from="1069574886#1" to="-833493243#4"/>
    <trip id="406" depart="34.07" from="-519323442#3" to="519323440#2"/>
    <trip id="407" depart="34.16" from="231177199#6" to="-519323447#2"/>
    <trip id="408" depart="34.24" from="607102867" to="-1012639045#2"/>
    <trip id="409" depart="34.33" from="532529595#5" to="519323442#0"/>